*GROWTH ASPECTS OUTPUT FILE

*DSSAT Cropping System Model Ver. 4.8.0.027 -release  JAN 10, 2024 21:16:38

*RUN   1        : 1 | 1                     WHAPS048 SEDE9501    1
 MODEL          : WHAPS048 - Wheat
 EXPERIMENT     : SEDE9501 WH en, Duengungs-Kombinationsversuch Seehausen (F1-70
 DATA PATH      :
 TREATMENT  1   : 1 | 1                     WHAPS048
  
!                                                                                                                                                                                                                                             Root Dens. (cm/cm3) by soil depth (cm):
!                                                                                                                                                                                                                                             0-5    5-15   15-30   30-45   45-60   60-90  90-120 120-150 150-180 180-210
@YEAR DOY   DAS   DAP    DCCD  GSTD   LAID   LWAD   SWAD   GWAD   RWAD   VWAD   CWAD   G#AD   G#AD2  GWGD   HIAD   SHAD   WSPD   WSGD   SLFT   NSTD   EWSD  PST1A  PST2A   KSTD   LN%D   TPSM   HIPD   PWDD   PWTD     SLAD   CHTD   CWID   RDPD    RL1D    RL2D    RL3D    RL4D    RL5D    RL6D    RL7D    RL8D    RL9D   RL10D   CDAD   LDAD   SDAD   SNW0C   SNW1C    DTTD   SUMDTT
 1994 299     3     0   0.000     8  0.000      0      0      0      0      0      0      0      0    0.0  0.000      0   0.00   0.00   0.00   0.00   0.00   0.00   0.00   1.00   0.00    0.0   0.00      0      0      0.0   0.00   0.00 0.0550   0.000   0.000   0.000   0.000   0.000   0.000   0.000   0.000   0.000   0.000      0      0      0       0       0   8.850    0.000
 1994 300     4     1   0.000     8  0.000      0      0      0      0      0      0      0      0    0.0  0.000      0   0.00   0.00   0.00   0.00   0.00   0.00   0.00   1.00   0.00    0.0   0.00      0      0      0.0   0.00   0.00 0.0550   0.000   0.000   0.000   0.000   0.000   0.000   0.000   0.000   0.000   0.000      0      0      0       0       0   8.000    8.000
 1994 301     5     2   0.884     9  0.000      0      0      0      0      0      0      0      0    0.0  0.000      0   0.00   0.00   0.00   0.00   0.00   0.00   0.00   1.00   0.00    0.0   0.00      0      0      0.0   0.00   0.00 0.0550   0.000   0.000   0.000   0.000   0.000   0.000   0.000   0.000   0.000   0.000      0      0      0       0       0   8.500    8.500
 1994 302     6     3   1.592     9  0.000      0      0      0      0      0      0      0      0    0.0  0.000      0   0.00   0.00   0.00   0.00   0.00   0.00   0.00   1.00   0.00    0.0   0.00      0      0      0.0   0.00   0.00 0.0550   0.000   0.000   0.000   0.000   0.000   0.000   0.000   0.000   0.000   0.000      0      0      0       0       0   6.800   15.300
 1994 303     7     4   2.810     9  0.000      0      0      0      0      0      0      0      0    0.0  0.000      0   0.00   0.00   0.00   0.00   0.00   0.00   0.00   1.00   0.00    0.0   0.00      0      0      0.0   0.00   0.00 0.0550   0.000   0.000   0.000   0.000   0.000   0.000   0.000   0.000   0.000   0.000      0      0      0       0       0  11.700   27.000
 1994 304     8     5   4.396     9  0.000      0      0      0      0      0      0      0      0    0.0  0.000      0   0.00   0.00   0.00   0.00   0.00   0.00   0.00   1.00   0.00    0.0   0.00      0      0      0.0   0.00   0.00 0.0550   0.000   0.000   0.000   0.000   0.000   0.000   0.000   0.000   0.000   0.000      0      0      0       0       0  15.250   42.250
 1994 305     9     6   5.536     9  0.000      0      0      0      0      0      0      0      0    0.0  0.000      0   0.00   0.00   0.00   0.00   0.00   0.00   0.00   1.00   0.00    0.0   0.00      0      0      0.0   0.00   0.00 0.0550   0.000   0.000   0.000   0.000   0.000   0.000   0.000   0.000   0.000   0.000      0      0      0       0       0  10.950   53.200
 1994 306    10     7   6.337     9  0.000      0      0      0      0      0      0      0      0    0.0  0.000      0   0.00   0.00   0.00   0.00   0.00   0.00   0.00   1.00   0.00    0.0   0.00      0      0      0.0   0.00   0.00 0.0550   0.000   0.000   0.000   0.000   0.000   0.000   0.000   0.000   0.000   0.000      0      0      0       0       0   7.700   60.900
 1994 307    11     8   7.071     9  0.000      0      0      0      0      0      0      0      0    0.0  0.000      0   0.00   0.00   0.00   0.00   0.00   0.00   0.00   1.00   0.00    0.0   0.00      0      0      0.0   0.00   0.00 0.0550   0.000   0.000   0.000   0.000   0.000   0.000   0.000   0.000   0.000   0.000      0      0      0       0       0   7.050   67.950
 1994 308    12     9   7.882     9  0.000      0      0      0      0      0      0      0      0    0.0  0.000      0   0.00   0.00   0.00   0.00   0.00   0.00   0.00   1.00   0.00    0.0   0.00      0      0      0.0   0.00   0.00 0.0550   0.000   0.000   0.000   0.000   0.000   0.000   0.000   0.000   0.000   0.000      0      0      0       0       0   7.800   75.750
 1994 309    13    10   8.949     9  0.000      0      0      0      0      0      0      0      0    0.0  0.000      0   0.00   0.00   0.00   0.00   0.00   0.00   0.00   1.00   0.00    0.0   0.00      0      0      0.0   0.00   0.00 0.0550   0.000   0.000   0.000   0.000   0.000   0.000   0.000   0.000   0.000   0.000      0      0      0       0       0  10.250   86.000
 1994 310    14    11  10.009     1  0.022     17      0      0     30     18     18      0      0    0.0  0.000      1   0.00   0.00   1.00   0.00   0.00   0.00   0.00   1.00   4.05  500.0   0.00      0      1    300.0   0.00   0.00 0.0777   0.040   0.009   0.000   0.000   0.000   0.000   0.000   0.000   0.000   0.000      0      0      0       0       0  10.300    0.200
 1994 311    15    12  10.198     1  0.022     23      0      0     30     25     25      0      0    0.0  0.000      1   0.00   0.00   1.00   0.00   0.00   0.00   0.00   1.00   3.63  500.0   0.00      0      1    300.0   0.00   0.00 0.0974   0.040   0.009   0.000   0.000   0.000   0.000   0.000   0.000   0.000   0.000      0      0      0       0       0   8.950    4.497
 1994 312    16    13  10.370     1  0.023     30      0      0     30     32     32      0      0    0.0  0.000      1   0.00   0.00   1.00   0.00   0.00   0.00   0.00   1.00   3.23  500.0   0.00      0      1    300.0   0.00   0.00 0.1155   0.039   0.009   0.000   0.000   0.000   0.000   0.000   0.000   0.000   0.000      0      0      0       0       0   8.250    8.412
 1994 313    17    14  10.537     1  0.024     38      0      0     30     40     40      0      0    0.0  0.000      1   0.00   0.00   1.00   0.00   0.00   0.00   0.00   1.00   2.83  500.0   0.00      0      1    300.0   0.00   0.00 0.1333   0.039   0.009   0.000   0.000   0.000   0.000   0.000   0.000   0.000   0.000      0      0      0       0       0   8.100   12.213
 1994 314    18    15  10.668     1  0.025     44      0      0     30     46     46      0      0    0.0  0.000      2   0.00   0.00   1.00   0.00   0.00   0.00   0.00   1.00   2.64  500.0   0.00      0      2    300.0   0.00   0.00 0.1475   0.039   0.009   0.000   0.000   0.000   0.000   0.000   0.000   0.000   0.000      0      0      0       0       0   6.450   15.204
 1994 315    19    16  10.751     1  0.025     46      0      0     30     49     49      0      0    0.0  0.000      2   0.00   0.00   1.00   0.00   0.00   0.00   0.00   1.00   2.63  500.0   0.00      0      2    300.0   0.00   0.00 0.1565   0.038   0.009   0.000   0.000   0.000   0.000   0.000   0.000   0.000   0.000      0      0      0       0       0   4.100   17.084
 1994 316    20    17  10.778     1  0.025     47      0      0     29     49     49      0      0    0.0  0.000      2   0.00   0.00   1.00   0.00   0.00   0.00   0.00   1.00   2.76  500.0   0.00      0      2    300.0   0.00   0.00 0.1596   0.038   0.009   0.000   0.000   0.000   0.000   0.000   0.000   0.000   0.000      0      0      0       0       0   1.378   17.708
 1994 317    21    18  10.842     1  0.026     48      0      0     29     50     50      0      0    0.0  0.000      2   0.00   0.00   1.00   0.00   0.00   0.00   0.00   1.00   2.79  500.0   0.00      0      2    300.0   0.00   0.00 0.1667   0.038   0.009   0.000   0.000   0.000   0.000   0.000   0.000   0.000   0.000      0      0      0       0       0   3.246   19.163
 1994 318    22    19  11.012     1  0.026     60      0      0     29     62     62      0      0    0.0  0.000      2   0.00   0.00   1.00   0.00   0.00   0.00   0.00   1.00   2.28  500.0   0.00      0      2    300.0   0.00   0.00 0.1789   0.037   0.008   0.000   0.000   0.000   0.000   0.000   0.000   0.000   0.000      0      0      0       0       0   8.700   23.016
 1994 319    23    20  11.230     1  0.028     74      0      0     29     77     77      0      0    0.0  0.000      3   0.00   0.00   1.00   0.00   0.00   0.00   0.00   1.00   1.85  500.0   0.00      0      3    300.0   0.00   0.00 0.1948   0.037   0.008   0.000   0.000   0.000   0.000   0.000   0.000   0.000   0.000      0      0      0       0       0  11.350   27.985
 1994 320    24    21  11.386     1  0.030     75      0      0     30     78     78      0      0    0.0  0.000      3   0.00   0.00   1.00   0.00   0.00   0.00   0.00   1.00   1.86  500.0   0.00      0      3    300.0   0.00   0.00 0.2064   0.036   0.008   0.000   0.000   0.000   0.000   0.000   0.000   0.000   0.000      0      0      0       0       0   8.200   31.534
 1994 321    25    22  11.501     1  0.030     75      0      0     29     79     79      0      0    0.0  0.000      3   0.00   0.00   1.00   0.00   0.00   0.00   0.00   1.00   1.86  500.0   0.00      0      3    300.0   0.00   0.00 0.2149   0.036   0.008   0.000   0.000   0.000   0.000   0.000   0.000   0.000   0.000      0      0      0       0       0   6.100   34.144
 1994 322    26    23  11.585     1  0.031     75      0      0     29     79     79      0      0    0.0  0.000      4   0.00   0.00   1.00   0.00   0.00   0.00   0.00   1.00   1.88  500.0   0.00      0      4    300.0   0.00   0.00 0.2212   0.036   0.008   0.000   0.000   0.000   0.000   0.000   0.000   0.000   0.000      0      0      0       0       0   4.500   36.047
 1994 323    27    24  11.666     1  0.032     75      0      0     29     80     80      0      0    0.0  0.000      4   0.00   0.00   1.00   0.00   0.00   0.00   0.00   1.00   1.89  500.0   0.00      0      4    300.0   0.00   0.00 0.2275   0.036   0.008   0.000   0.000   0.000   0.000   0.000   0.000   0.000   0.000      0      0      0       0       0   4.450   37.909
 1994 324    28    25  11.875     1  0.033     76      0      0     29     81     81      0      0    0.0  0.000      4   0.00   0.00   1.00   0.00   0.00   0.00   0.00   1.00   1.90  500.0   0.00      0      4    300.0   0.00   0.00 0.2436   0.035   0.008   0.000   0.000   0.000   0.000   0.000   0.000   0.000   0.000      0      0      0       0       0  11.500   42.666
 1994 325    29    26  12.047     1  0.033     76      0      0     29     81     81      0      0    0.0  0.000      4   0.00   0.00   1.00   1.00   0.00   0.00   0.00   1.00   1.95  500.0   0.00      0      4    300.0   0.00   0.00 0.2570   0.035   0.008   0.000   0.000   0.000   0.000   0.000   0.000   0.000   0.000      0      0      0       0       0   9.550   46.573
 1994 326    30    27  12.150     1  0.034     76      0      0     29     81     81      0      0    0.0  0.000      5   0.00   0.00   1.00   0.99   0.00   0.00   0.00   1.00   2.00  500.0   0.00      0      5    300.0   0.00   0.00 0.2652   0.035   0.008   0.000   0.000   0.000   0.000   0.000   0.000   0.000   0.000      0      0      0       0       0   5.800   48.920
 1994 327    31    28  12.227     1  0.034     76      0      0     29     82     82      0      0    0.0  0.000      5   0.00   0.00   1.00   0.98   0.00   0.00   0.00   1.00   2.04  500.0   0.00      0      5    300.0   0.00   0.00 0.2713   0.034   0.008   0.000   0.000   0.000   0.000   0.000   0.000   0.000   0.000      0      0      0       0       0   4.360   50.665
 1994 328    32    29  12.359     1  0.035     76      0      0     29     82     82      0      0    0.0  0.000      5   0.00   0.00   1.00   0.97   0.00   0.00   0.00   1.00   2.08  500.0   0.00      0      5    300.0   0.00   0.00 0.2820   0.034   0.008   0.000   0.000   0.000   0.000   0.000   0.000   0.000   0.000      0      0      0       0       0   7.600   53.675
 1994 329    33    30  12.482     1  0.035     77      0      0     29     82     82      0      0    0.0  0.000      5   0.00   0.00   1.00   0.96   0.00   0.00   0.00   1.00   2.11  500.0   0.00      0      5    300.0   0.00   0.00 0.2920   0.034   0.008   0.000   0.000   0.000   0.000   0.000   0.000   0.000   0.000      0      0      0       0       0   7.150   56.477
 1994 330    34    31  12.606     1  0.036     77      0      0     28     83     83      0      0    0.0  0.000      5   0.00   0.00   1.00   0.95   0.00   0.00   0.00   1.00   2.13  500.0   0.00      0      5    300.0   0.00   0.00 0.3022   0.033   0.008   0.000   0.000   0.000   0.000   0.000   0.000   0.000   0.000      0      0      0       0       0   7.250   59.289
 1994 331    35    32  12.733     1  0.036     77      0      0     28     83     83      0      0    0.0  0.000      5   0.00   0.00   1.00   0.95   0.00   0.00   0.00   1.00   2.15  500.0   0.00      0      5    300.0   0.00   0.00 0.3127   0.033   0.008   0.000   0.000   0.000   0.000   0.000   0.000   0.000   0.000      0      0      0       0       0   7.500   62.168
 1994 332    36    33  12.847     1  0.037     77      0      0     28     83     83      0      0    0.0  0.000      6   0.00   0.00   1.00   0.94   0.00   0.00   0.00   1.00   2.18  500.0   0.00      0      6    300.0   0.00   0.00 0.3198   0.033   0.007   0.000   0.000   0.000   0.000   0.000   0.000   0.000   0.000      0      0      0       0       0   6.850   64.771
 1994 333    37    34  12.927     1  0.037     77      0      0     28     84     84      0      0    0.0  0.000      6   0.00   0.00   1.00   0.94   0.00   0.00   0.00   1.00   2.21  500.0   0.00      0      6    300.0   0.00   0.00 0.3248   0.032   0.007   0.000   0.000   0.000   0.000   0.000   0.000   0.000   0.000      0      0      0       0       0   4.850   66.597
 1994 334    38    35  13.026     1  0.038     78      0      0     28     84     84      0      0    0.0  0.000      6   0.00   0.00   1.00   0.93   0.00   0.00   0.00   1.00   2.23  500.0   0.00      0      6    300.0   0.00   0.00 0.3311   0.032   0.007   0.000   0.000   0.000   0.000   0.000   0.000   0.000   0.000      0      0      0       0       0   6.050   68.853
 1994 335    39    36  13.077     1  0.039     78      0      0     28     84     84      0      0    0.0  0.000      6   0.00   0.00   1.00   0.92   0.00   0.00   0.00   1.00   2.26  500.0   0.00      0      6    300.0   0.00   0.00 0.3344   0.032   0.007   0.000   0.000   0.000   0.000   0.000   0.000   0.000   0.000      0      0      0       0       0   3.116   70.004
 1994 336    40    37  13.100     1  0.039     78      0      0     28     84     84      0      0    0.0  0.000      6   0.00   0.00   1.00   0.92   0.00   0.00   0.00   1.00   2.29  500.0   0.00      0      6    300.0   0.00   0.00 0.3358   0.031   0.007   0.000   0.000   0.000   0.000   0.000   0.000   0.000   0.000      0      0      0       0       0   1.425   70.526
 1994 337    41    38  13.183     1  0.039     78      0      0     27     85     85      0      0    0.0  0.000      6   0.00   0.00   1.00   0.91   0.00   0.00   0.00   1.00   2.31  500.0   0.00      0      6    300.0   0.00   0.00 0.3412   0.031   0.007   0.000   0.000   0.000   0.000   0.000   0.000   0.000   0.000      0      0      0       0       0   5.200   72.413
 1994 338    42    39  13.302     1  0.040     78      0      0     27     85     85      0      0    0.0  0.000      7   0.00   0.00   1.00   0.91   0.00   0.00   0.00   1.00   2.32  500.0   0.00      0      7    300.0   0.00   0.00 0.3490   0.031   0.007   0.000   0.000   0.000   0.000   0.000   0.000   0.000   0.000      0      0      0       0       0   7.500   75.113
 1994 339    43    40  13.430     1  0.040     78      0      0     27     85     85      0      0    0.0  0.000      7   0.00   0.00   1.00   0.90   0.00   0.00   0.00   1.00   2.33  500.0   0.00      0      7    300.0   0.00   0.00 0.3575   0.030   0.007   0.000   0.000   0.000   0.000   0.000   0.000   0.000   0.000      0      0      0       0       0   8.200   78.041
 1994 340    44    41  13.527     1  0.041     78      0      0     27     86     86      0      0    0.0  0.000      7   0.00   0.00   1.00   0.90   0.00   0.00   0.00   1.00   2.34  500.0   0.00      0      7    300.0   0.00   0.00 0.3640   0.030   0.007   0.000   0.000   0.000   0.000   0.000   0.000   0.000   0.000      0      0      0       0       0   6.200   80.238
 1994 341    45    42  13.586     1  0.041     79      0      0     27     86     86      0      0    0.0  0.000      7   0.00   0.00   1.00   0.90   0.00   0.00   0.00   1.00   2.35  500.0   0.00      0      7    300.0   0.00   0.00 0.3679   0.030   0.007   0.000   0.000   0.000   0.000   0.000   0.000   0.000   0.000      0      0      0       0       0   3.800   81.575
 1994 342    46    43  13.672     1  0.042     79      0      0     27     86     86      0      0    0.0  0.000      7   0.00   0.00   1.00   0.90   0.00   0.00   0.00   1.00   2.37  500.0   0.00      0      7    300.0   0.00   0.00 0.3737   0.029   0.007   0.000   0.000   0.000   0.000   0.000   0.000   0.000   0.000      0      0      0       0       0   5.600   83.531
 1994 343    47    44  13.754     1  0.042     79      0      0     27     87     87      0      0    0.0  0.000      7   0.00   0.00   1.00   0.90   0.00   0.00   0.00   1.00   2.39  500.0   0.00      0      7    300.0   0.00   0.00 0.3793   0.029   0.007   0.000   0.000   0.000   0.000   0.000   0.000   0.000   0.000      0      0      0       0       0   5.400   85.405
 1994 344    48    45  13.809     1  0.043     79      0      0     27     87     87      0      0    0.0  0.000      8   0.00   0.00   1.00   0.89   0.00   0.00   0.00   1.00   2.39  500.0   0.00      0      8    300.0   0.00   0.00 0.3831   0.029   0.007   0.000   0.000   0.000   0.000   0.000   0.000   0.000   0.000      0      0      0       0       0   3.635   86.659
 1994 345    49    46  13.966     1  0.043     79      0      0     26     88     88      0      0    0.0  0.000      8   0.00   0.00   1.00   0.89   0.00   0.00   0.00   1.00   2.40  500.0   0.00      0      8    300.0   0.00   0.00 0.3939   0.029   0.007   0.000   0.000   0.000   0.000   0.000   0.000   0.000   0.000      0      0      0       0       0  10.400   90.226
 1994 346    50    47  14.141     1  0.044     79      0      0     26     88     88      0      0    0.0  0.000      8   0.00   0.00   1.00   0.89   0.00   0.00   0.00   1.00   2.40  500.0   0.00      0      8    300.0   0.00   0.00 0.4061   0.028   0.007   0.000   0.000   0.000   0.000   0.000   0.000   0.000   0.000      0      0      0       0       0  11.700   94.217
 1994 347    51    48  14.267     1  0.044     80      0      0     26     88     88      0      0    0.0  0.000      8   0.00   0.00   1.00   0.89   0.00   0.00   0.00   1.00   2.40  500.0   0.00      0      8    300.0   0.00   0.00 0.4148   0.028   0.007   0.000   0.000   0.000   0.000   0.000   0.000   0.000   0.000      0      0      0       0       0   8.400   97.069
 1994 348    52    49  14.312     1  0.045     80      0      0     26     89     89      0      0    0.0  0.000      8   0.00   0.00   1.00   0.89   0.00   0.00   0.00   1.00   2.41  500.0   0.00      0      8    300.0   0.00   0.00 0.4179   0.028   0.006   0.000   0.000   0.000   0.000   0.000   0.000   0.000   0.000      0      0      0       0       0   3.029   98.093
 1994 349    53    50  14.321     1  0.045     80      0      0     26     89     89      0      0    0.0  0.000      8   0.00   0.00   1.00   0.89   0.00   0.00   0.00   1.00   2.43  500.0   0.00      0      8    300.0   0.00   0.00 0.4186   0.028   0.006   0.000   0.000   0.000   0.000   0.000   0.000   0.000   0.000      0      0      0       0       0   0.593   98.293
 1994 350    54    51  14.329     1  0.045     80      0      0     26     89     89      0      0    0.0  0.000      8   0.00   0.00   1.00   0.88   0.00   0.00   0.00   1.00   2.45  500.0   0.00      0      8    300.0   0.00   0.00 0.4192   0.027   0.006   0.000   0.000   0.000   0.000   0.000   0.000   0.000   0.000      0      0      0       0       0   0.588   98.490
 1994 351    55    52  14.364     1  0.045     80      0      0     26     89     89      0      0    0.0  0.000      8   0.00   0.00   1.00   0.88   0.00   0.00   0.00   1.00   2.46  500.0   0.00      0      8    300.0   0.00   0.00 0.4216   0.027   0.006   0.000   0.000   0.000   0.000   0.000   0.000   0.000   0.000      0      0      0       0       0   2.329   99.270
 1994 352    56    53  14.387     1  0.046     80      0      0     25     89     89      0      0    0.0  0.000      9   0.00   0.00   1.00   0.88   0.00   0.00   0.00   1.00   2.48  500.0   0.00      0      9    300.0   0.00   0.00 0.4233   0.027   0.006   0.000   0.000   0.000   0.000   0.000   0.000   0.000   0.000      0      0      0       0       0   1.626   99.812
 1994 353    57    54  14.433     1  0.046     80      0      0     25     90     90      0      0    0.0  0.000      9   0.00   0.00   1.00   0.87   0.00   0.00   0.00   1.00   2.49  500.0   0.00      0      9    300.0   0.00   0.00 0.4265   0.026   0.006   0.000   0.000   0.000   0.000   0.000   0.000   0.000   0.000      0      0      0       0       0   3.100  100.845
 1994 354    58    55  14.464     1  0.047     80      0      0     25     90     90      0      0    0.0  0.000      9   0.00   0.00   1.00   0.87   0.00   0.00   0.00   1.00   2.50  500.0   0.00      0      9    300.0   0.00   0.00 0.4287   0.026   0.006   0.000   0.000   0.000   0.000   0.000   0.000   0.000   0.000      0      0      0       0       0   2.167  101.566
 1994 355    59    56  14.495     1  0.047     81      0      0     25     90     90      0      0    0.0  0.000      9   0.00   0.00   1.00   0.87   0.00   0.00   0.00   1.00   2.51  500.0   0.00      0      9    300.0   0.00   0.00 0.4309   0.026   0.006   0.000   0.000   0.000   0.000   0.000   0.000   0.000   0.000      0      0      0       0       0   2.107  102.267
 1994 356    60    57  14.514     1  0.048     81      0      0     25     91     91      0      0    0.0  0.000      9   0.00   0.00   1.00   0.87   0.00   0.00   0.00   1.00   2.52  500.0   0.00      0      9    300.0   0.00   0.00 0.4322   0.026   0.006   0.000   0.000   0.000   0.000   0.000   0.000   0.000   0.000      0      0      0       0       0   1.250  102.682
 1994 357    61    58  14.523     1  0.048     81      0      0     25     91     91      0      0    0.0  0.000      9   0.00   0.00   1.00   0.87   0.00   0.00   0.00   1.00   2.53  500.0   0.00      0      9    300.0   0.00   0.00 0.4329   0.025   0.006   0.000   0.000   0.000   0.000   0.000   0.000   0.000   0.000      0      0      0       0       0   0.656  102.900
 1994 358    62    59  14.528     1  0.048     81      0      0     24     91     91      0      0    0.0  0.000      9   0.00   0.00   1.00   0.87   0.00   0.00   0.00   1.00   2.54  500.0   0.00      0      9    300.0   0.00   0.00 0.4333   0.025   0.006   0.000   0.000   0.000   0.000   0.000   0.000   0.000   0.000      0      0      0       0       0   0.364  103.021
 1994 359    63    60  14.532     1  0.048     81      0      0     24     91     91      0      0    0.0  0.000      9   0.00   0.00   1.00   0.86   0.00   0.00   0.00   1.00   2.55  500.0   0.00      0      9    300.0   0.00   0.00 0.4335   0.025   0.006   0.000   0.000   0.000   0.000   0.000   0.000   0.000   0.000      0      0      0       0       0   0.221  103.095
 1994 360    64    61  14.550     1  0.048     81      0      0     24     91     91      0      0    0.0  0.000      9   0.00   0.00   1.00   0.86   0.00   0.00   0.00   1.00   2.56  500.0   0.00      0      9    300.0   0.00   0.00 0.4348   0.025   0.006   0.000   0.000   0.000   0.000   0.000   0.000   0.000   0.000      0      0      0       0       0   1.257  103.514
 1994 361    65    62  14.634     1  0.049     81      0      0     24     91     91      0      0    0.0  0.000     10   0.00   0.00   1.00   0.86   0.00   0.00   0.00   1.00   2.56  500.0   0.00      0     10    300.0   0.00   0.00 0.4407   0.024   0.006   0.000   0.000   0.000   0.000   0.000   0.000   0.000   0.000      0      0      0       0       0   5.700  105.420
 1994 362    66    63  14.779     1  0.049     81      0      0     24     91     91      0      0    0.0  0.000     10   0.00   0.00   1.00   0.86   0.00   0.00   0.00   1.00   2.56  500.0   0.00      0     10    300.0   0.00   0.00 0.4510   0.024   0.006   0.000   0.000   0.000   0.000   0.000   0.000   0.000   0.000      0      0      0       0       0   9.850  108.722
 1994 363    67    64  14.953     1  0.050     81      0      0     24     92     92      0      0    0.0  0.000     10   0.00   0.00   1.00   0.86   0.00   0.00   0.00   1.00   2.56  500.0   0.00      0     10    300.0   0.00   0.00 0.4632   0.024   0.006   0.000   0.000   0.000   0.000   0.000   0.000   0.000   0.000      0      0      0       0       0  11.750  112.674
 1994 364    68    65  15.074     1  0.050     82      0      0     24     92     92      0      0    0.0  0.000     10   0.00   0.00   1.00   0.86   0.00   0.00   0.00   1.00   2.56  500.0   0.00      0     10    300.0   0.00   0.00 0.4695   0.024   0.006   0.000   0.000   0.000   0.000   0.000   0.000   0.000   0.000      0      0      0       0       0   8.200  115.442
 1994 365    69    66  15.158     1  0.051     82      0      0     24     92     92      0      0    0.0  0.000     10   0.00   0.00   1.00   0.86   0.00   0.00   0.00   1.00   2.56  500.0   0.00      0     10    300.0   0.00   0.00 0.4738   0.023   0.005   0.000   0.000   0.000   0.000   0.000   0.000   0.000   0.000      0      0      0       0       0   5.600  117.340
 1995 001    70    67  15.196     1  0.051     82      0      0     24     93     93      0      0    0.0  0.000     10   0.00   0.00   1.00   0.86   0.00   0.00   0.00   1.00   2.57  500.0   0.00      0     10    300.0   0.00   0.00 0.4758   0.023   0.005   0.000   0.000   0.000   0.000   0.000   0.000   0.000   0.000      0      0      0       0       0   2.550  118.210
 1995 002    71    68  15.216     1  0.051     82      0      0     23     93     93      0      0    0.0  0.000     10   0.00   0.00   1.00   0.86   0.00   0.00   0.00   1.00   2.57  500.0   0.00      0     10    300.0   0.00   0.00 0.4768   0.023   0.005   0.000   0.000   0.000   0.000   0.000   0.000   0.000   0.000      0      0      0       0       0   1.337  118.668
 1995 003    72    69  15.222     1  0.051     82      0      0     23     93     93      0      0    0.0  0.000     10   0.00   0.00   1.00   0.86   0.00   0.00   0.00   1.00   2.59  500.0   0.00      0     10    300.0   0.00   0.00 0.4771   0.023   0.005   0.000   0.000   0.000   0.000   0.000   0.000   0.000   0.000      0      0      0       0       0   0.401  118.806
 1995 004    73    70  15.222     1  0.051     82      0      0     23     93     93      0      0    0.0  0.000     10   0.00   0.00   1.00   0.85   0.00   0.00   0.00   1.00   2.61  500.0   0.00      0     10    300.0   0.00   0.00 0.4771   0.023   0.005   0.000   0.000   0.000   0.000   0.000   0.000   0.000   0.000      0      0      0       0       0   0.000  118.806
 1995 005    74    71  15.222     1  0.051     82      0      0     23     93     93      0      0    0.0  0.000     10   0.00   0.00   1.00   0.85   0.00   0.00   0.00   1.00   2.62  500.0   0.00      0     10    300.0   0.00   0.00 0.4771   0.022   0.005   0.000   0.000   0.000   0.000   0.000   0.000   0.000   0.000      0      0      0       0       0   0.000  118.806
 1995 006    75    72  15.222     1  0.051     82      0      0     23     93     93      0      0    0.0  0.000     10   0.00   0.00   1.00   0.85   0.00   0.00   0.00   1.00   2.64  500.0   0.00      0     10    300.0   0.00   0.00 0.4771   0.022   0.005   0.000   0.000   0.000   0.000   0.000   0.000   0.000   0.000      0      0      0       0       0   0.000  118.806
 1995 007    76    73  15.222     1  0.051     82      0      0     22     93     93      0      0    0.0  0.000     10   0.00   0.00   1.00   0.84   0.00   0.00   0.00   1.00   2.65  500.0   0.00      0     10    300.0   0.00   0.00 0.4771   0.022   0.005   0.000   0.000   0.000   0.000   0.000   0.000   0.000   0.000      0      0      0       0       0   0.000  118.806
 1995 008    77    74  15.222     1  0.051     82      0      0     22     93     93      0      0    0.0  0.000     10   0.00   0.00   1.00   0.84   0.00   0.00   0.00   1.00   2.66  500.0   0.00      0     10    300.0   0.00   0.00 0.4771   0.022   0.005   0.000   0.000   0.000   0.000   0.000   0.000   0.000   0.000      0      0      0       0       0   0.000  118.806
 1995 009    78    75  15.225     1  0.051     82      0      0     22     93     93      0      0    0.0  0.000     10   0.00   0.00   1.00   0.83   0.00   0.00   0.00   1.00   2.67  500.0   0.00      0     10    300.0   0.00   0.00 0.4772   0.021   0.005   0.000   0.000   0.000   0.000   0.000   0.000   0.000   0.000      0      0      0       0       0   0.175  118.870
 1995 010    79    76  15.254     1  0.052     82      0      0     22     93     93      0      0    0.0  0.000     11   0.00   0.00   1.00   0.83   0.00   0.00   0.00   1.00   2.67  500.0   0.00      0     11    300.0   0.00   0.00 0.4786   0.021   0.005   0.000   0.000   0.000   0.000   0.000   0.000   0.000   0.000      0      0      0       0       0   1.800  119.523
 1995 011    80    77  15.274     1  0.053     82      0      0     22     94     94      0      0    0.0  0.000     11   0.00   0.00   1.00   0.83   0.00   0.00   0.00   1.00   2.67  500.0   0.00      0     11    300.0   0.00   0.00 0.4796   0.021   0.005   0.000   0.000   0.000   0.000   0.000   0.000   0.000   0.000      0      0      0       0       0   1.250  119.980
 1995 012    81    78  15.292     1  0.053     82      0      0     22     94     94      0      0    0.0  0.000     11   0.00   0.00   1.00   0.84   0.00   0.00   0.00   1.00   2.68  500.0   0.00      0     11    300.0   0.00   0.00 0.4804   0.021   0.005   0.000   0.000   0.000   0.000   0.000   0.000   0.000   0.000      0      0      0       0       0   1.096  120.385
 1995 013    82    79  15.294     1  0.053     82      0      0     21     94     94      0      0    0.0  0.000     11   0.00   0.00   1.00   0.83   0.00   0.00   0.00   1.00   2.68  500.0   0.00      0     11    300.0   0.00   0.00 0.4806   0.021   0.005   0.000   0.000   0.000   0.000   0.000   0.000   0.000   0.000      0      0      0       0       0   0.173  120.449
 1995 014    83    80  15.295     1  0.053     82      0      0     21     94     94      0      0    0.0  0.000     11   0.00   0.00   1.00   0.83   0.00   0.00   0.00   1.00   2.69  500.0   0.00      0     11    300.0   0.00   0.00 0.4806   0.020   0.005   0.000   0.000   0.000   0.000   0.000   0.000   0.000   0.000      0      0      0       0       0   0.051  120.468
 1995 015    84    81  15.320     1  0.053     83      0      0     21     94     94      0      0    0.0  0.000     11   0.00   0.00   1.00   0.83   0.00   0.00   0.00   1.00   2.69  500.0   0.00      0     11    300.0   0.00   0.00 0.4817   0.020   0.005   0.000   0.000   0.000   0.000   0.000   0.000   0.000   0.000      0      0      0       0       0   1.450  121.019
 1995 016    85    82  15.363     1  0.054     83      0      0     21     94     94      0      0    0.0  0.000     11   0.00   0.00   1.00   0.83   0.00   0.00   0.00   1.00   2.69  500.0   0.00      0     11    300.0   0.00   0.00 0.4837   0.020   0.005   0.000   0.000   0.000   0.000   0.000   0.000   0.000   0.000      0      0      0       0       0   2.587  122.012
 1995 017    86    83  15.391     1  0.054     83      0      0     21     95     95      0      0    0.0  0.000     11   0.00   0.00   1.00   0.83   0.00   0.00   0.00   1.00   2.69  500.0   0.00      0     11    300.0   0.00   0.00 0.4850   0.020   0.005   0.000   0.000   0.000   0.000   0.000   0.000   0.000   0.000      0      0      0       0       0   1.632  122.644
 1995 018    87    84  15.395     1  0.054     83      0      0     21     95     95      0      0    0.0  0.000     11   0.00   0.00   1.00   0.83   0.00   0.00   0.00   1.00   2.69  500.0   0.00      0     11    300.0   0.00   0.00 0.4851   0.020   0.005   0.000   0.000   0.000   0.000   0.000   0.000   0.000   0.000      0      0      0       0       0   0.244  122.740
 1995 019    88    85  15.422     1  0.055     83      0      0     21     95     95      0      0    0.0  0.000     12   0.00   0.00   1.00   0.83   0.00   0.00   0.00   1.00   2.69  500.0   0.00      0     12    300.0   0.00   0.00 0.4863   0.019   0.005   0.000   0.000   0.000   0.000   0.000   0.000   0.000   0.000      0      0      0       0       0   1.556  123.356
 1995 020    89    86  15.463     1  0.055     83      0      0     21     95     95      0      0    0.0  0.000     12   0.00   0.00   1.00   0.83   0.00   0.00   0.00   1.00   2.69  500.0   0.00      0     12    300.0   0.00   0.00 0.4881   0.019   0.005   0.000   0.000   0.000   0.000   0.000   0.000   0.000   0.000      0      0      0       0       0   2.307  124.279
 1995 021    90    87  15.506     1  0.056     83      0      0     21     96     96      0      0    0.0  0.000     12   0.00   0.00   1.00   0.84   0.00   0.00   0.00   1.00   2.69  500.0   0.00      0     12    300.0   0.00   0.00 0.4900   0.019   0.004   0.000   0.000   0.000   0.000   0.000   0.000   0.000   0.000      0      0      0       0       0   2.450  125.269
 1995 022    91    88  15.625     1  0.056     84      0      0     20     96     96      0      0    0.0  0.000     12   0.00   0.00   1.00   0.84   0.00   0.00   0.00   1.00   2.68  500.0   0.00      0     12    300.0   0.00   0.00 0.4951   0.019   0.004   0.000   0.000   0.000   0.000   0.000   0.000   0.000   0.000      0      0      0       0       0   6.600  127.968
 1995 023    92    89  15.753     1  0.057     84      0      0     21     97     97      0      0    0.0  0.000     12   0.00   0.00   1.00   0.84   0.00   0.00   0.00   1.00   2.67  500.0   0.00      0     12    300.0   0.00   0.00 0.5005   0.019   0.004   0.000   0.000   0.000   0.000   0.000   0.000   0.000   0.000      0      0      0       0       0   7.050  130.883
 1995 024    93    90  15.843     1  0.058     84      0      0     20     97     97      0      0    0.0  0.000     13   0.00   0.00   1.00   0.84   0.00   0.00   0.00   1.00   2.67  500.0   0.00      0     13    300.0   0.00   0.00 0.5043   0.018   0.004   0.000   0.000   0.000   0.000   0.000   0.000   0.000   0.000      0      0      0       0       0   4.900  132.931
 1995 025    94    91  15.895     1  0.058     84      0      0     20     97     97      0      0    0.0  0.000     13   0.00   0.00   1.00   0.84   0.00   0.00   0.00   1.00   2.67  500.0   0.00      0     13    300.0   0.00   0.00 0.5065   0.018   0.004   0.000   0.000   0.000   0.000   0.000   0.000   0.000   0.000      0      0      0       0       0   2.800  134.115
 1995 026    95    92  16.043     1  0.059     84      0      0     20     98     98      0      0    0.0  0.000     13   0.00   0.00   1.00   0.84   0.00   0.00   0.00   1.00   2.67  500.0   0.00      0     13    300.0   0.00   0.00 0.5125   0.018   0.004   0.000   0.000   0.000   0.000   0.000   0.000   0.000   0.000      0      0      0       0       0   7.850  137.472
 1995 027    96    93  16.090     1  0.059     85      0      0     20     98     98      0      0    0.0  0.000     13   0.00   0.00   1.00   0.85   0.00   0.00   0.00   1.00   2.66  500.0   0.00      0     13    300.0   0.00   0.00 0.5144   0.018   0.004   0.000   0.000   0.000   0.000   0.000   0.000   0.000   0.000      0      0      0       0       0   2.460  138.536
 1995 028    97    94  16.177     1  0.060     85      0      0     20     98     98      0      0    0.0  0.000     13   0.00   0.00   1.00   0.85   0.00   0.00   0.00   1.00   2.66  500.0   0.00      0     13    300.0   0.00   0.00 0.5179   0.018   0.004   0.000   0.000   0.000   0.000   0.000   0.000   0.000   0.000      0      0      0       0       0   4.550  140.527
 1995 029    98    95  16.328     1  0.061     85      0      0     20     99     99      0      0    0.0  0.000     14   0.00   0.00   1.00   0.85   0.00   0.00   0.00   1.00   2.65  500.0   0.00      0     14    300.0   0.00   0.00 0.5239   0.018   0.004   0.000   0.000   0.000   0.000   0.000   0.000   0.000   0.000      0      0      0       0       0   7.750  143.957
 1995 030    99    96  16.433     1  0.061     85      0      0     20     99     99      0      0    0.0  0.000     14   0.00   0.00   1.00   0.85   0.00   0.00   0.00   1.00   2.65  500.0   0.00      0     14    300.0   0.00   0.00 0.5280   0.017   0.004   0.000   0.000   0.000   0.000   0.000   0.000   0.000   0.000      0      0      0       0       0   5.328  146.343
 1995 031   100    97  16.486     1  0.062     85      0      0     20    100    100      0      0    0.0  0.000     14   0.00   0.00   1.00   0.85   0.00   0.00   0.00   1.00   2.65  500.0   0.00      0     14    300.0   0.00   0.00 0.5300   0.017   0.004   0.000   0.000   0.000   0.000   0.000   0.000   0.000   0.000      0      0      0       0       0   2.660  147.547
 1995 032   101    98  16.613     1  0.062     86      0      0     20    100    100      0      0    0.0  0.000     14   0.00   0.00   1.00   0.85   0.00   0.00   0.00   1.00   2.65  500.0   0.00      0     14    300.0   0.00   0.00 0.5349   0.017   0.004   0.000   0.000   0.000   0.000   0.000   0.000   0.000   0.000      0      0      0       0       0   6.350  150.457
 1995 033   102    99  16.713     1  0.063     86      0      0     20    101    101      0      0    0.0  0.000     14   0.00   0.00   1.00   0.85   0.00   0.00   0.00   1.00   2.65  500.0   0.00      0     14    300.0   0.00   0.00 0.5387   0.017   0.004   0.000   0.000   0.000   0.000   0.000   0.000   0.000   0.000      0      0      0       0       0   4.900  152.728
 1995 034   103   100  16.752     1  0.063     86      0      0     20    101    101      0      0    0.0  0.000     14   0.00   0.00   1.00   0.86   0.00   0.00   0.00   1.00   2.65  500.0   0.00      0     14    300.0   0.00   0.00 0.5401   0.017   0.004   0.000   0.000   0.000   0.000   0.000   0.000   0.000   0.000      0      0      0       0       0   1.865  153.602
 1995 035   104   101  16.832     1  0.064     86      0      0     20    101    101      0      0    0.0  0.000     15   0.00   0.00   1.00   0.86   0.00   0.00   0.00   1.00   2.65  500.0   0.00      0     15    300.0   0.00   0.00 0.5431   0.017   0.004   0.000   0.000   0.000   0.000   0.000   0.000   0.000   0.000      0      0      0       0       0   3.850  155.429
 1995 036   105   102  16.939     1  0.065     86      0      0     20    102    102      0      0    0.0  0.000     15   0.00   0.00   1.00   0.86   0.00   0.00   0.00   1.00   2.64  500.0   0.00      0     15    300.0   0.00   0.00 0.5470   0.016   0.004   0.000   0.000   0.000   0.000   0.000   0.000   0.000   0.000      0      0      0       0       0   5.050  157.852
 1995 037   106   103  17.100     1  0.065     87      0      0     20    102    102      0      0    0.0  0.000     15   0.00   0.00   1.00   0.86   0.00   0.00   0.00   1.00   2.65  500.0   0.00      0     15    300.0   0.00   0.00 0.5528   0.016   0.004   0.000   0.000   0.000   0.000   0.000   0.000   0.000   0.000      0      0      0       0       0   7.550  161.516
 1995 038   107   104  17.283     1  0.066     87      0      0     20    102    102      0      0    0.0  0.000     15   0.00   0.00   1.00   0.86   0.00   0.00   0.00   1.00   2.65  500.0   0.00      0     15    300.0   0.00   0.00 0.5593   0.016   0.004   0.000   0.000   0.000   0.000   0.000   0.000   0.000   0.000      0      0      0       0       0   8.500  165.689
 1995 039   108   105  17.386     1  0.066     87      0      0     20    103    103      0      0    0.0  0.000     15   0.00   0.00   1.00   0.86   0.00   0.00   0.00   1.00   2.65  500.0   0.00      0     15    300.0   0.00   0.00 0.5630   0.016   0.004   0.000   0.000   0.000   0.000   0.000   0.000   0.000   0.000      0      0      0       0       0   4.738  168.042
 1995 040   109   106  17.397     1  0.066     87      0      0     20    103    103      0      0    0.0  0.000     15   0.00   0.00   1.00   0.86   0.00   0.00   0.00   1.00   2.65  500.0   0.00      0     15    300.0   0.00   0.00 0.5633   0.016   0.004   0.000   0.000   0.000   0.000   0.000   0.000   0.000   0.000      0      0      0       0       0   0.477  168.281
 1995 041   110   107  17.398     1  0.066     87      0      0     20    103    103      0      0    0.0  0.000     15   0.00   0.00   1.00   0.86   0.00   0.00   0.00   1.00   2.66  500.0   0.00      0     15    300.0   0.00   0.00 0.5634   0.016   0.004   0.000   0.000   0.000   0.000   0.000   0.000   0.000   0.000      0      0      0       0       0   0.048  168.305
 1995 042   111   108  17.511     1  0.067     87      0      0     19    103    103      0      0    0.0  0.000     16   0.00   0.00   1.00   0.85   0.00   0.00   0.00   1.00   2.66  500.0   0.00      0     16    300.0   0.00   0.00 0.5672   0.016   0.004   0.000   0.000   0.000   0.000   0.000   0.000   0.000   0.000      0      0      0       0       0   5.000  170.873
 1995 043   112   109  17.689     1  0.068     88      0      0     20    104    104      0      0    0.0  0.000     16   0.00   0.00   1.00   0.85   0.00   0.00   0.00   1.00   2.65  500.0   0.00      0     16    300.0   0.00   0.00 0.5732   0.015   0.004   0.000   0.000   0.000   0.000   0.000   0.000   0.000   0.000      0      0      0       0       0   7.800  174.924
 1995 044   113   110  17.842     1  0.070     88      0      0     20    105    105      0      0    0.0  0.000     17   0.00   0.00   1.00   0.86   0.00   0.00   0.00   1.00   2.64  500.0   0.00      0     17    300.0   0.00   0.00 0.5783   0.015   0.004   0.000   0.000   0.000   0.000   0.000   0.000   0.000   0.000      0      0      0       0       0   6.650  178.416
 1995 045   114   111  18.005     1  0.071     88      0      0     20    106    106      0      0    0.0  0.000     17   0.00   0.00   1.00   0.86   0.00   0.00   0.00   1.00   2.64  500.0   0.00      0     17    300.0   0.00   0.00 0.5837   0.015   0.004   0.000   0.000   0.000   0.000   0.000   0.000   0.000   0.000      0      0      0       0       0   6.950  182.106
 1995 046   115   112  18.149     1  0.071     89      0      0     20    106    106      0      0    0.0  0.000     17   0.00   0.00   1.00   0.86   0.00   0.00   0.00   1.00   2.63  500.0   0.00      0     17    300.0   0.00   0.00 0.5884   0.015   0.004   0.000   0.000   0.000   0.000   0.000   0.000   0.000   0.000      0      0      0       0       0   6.100  185.381
 1995 047   116   113  18.317     1  0.073     89      0      0     20    107    107      0      0    0.0  0.000     18   0.00   0.00   1.00   0.86   0.00   0.00   0.00   1.00   2.63  500.0   0.00      0     18    300.0   0.00   0.00 0.5938   0.015   0.004   0.000   0.000   0.000   0.000   0.000   0.000   0.000   0.000      0      0      0       0       0   7.050  189.206
 1995 048   117   114  18.481     1  0.074     90      0      0     20    108    108      0      0    0.0  0.000     18   0.00   0.00   1.00   0.87   0.00   0.00   0.00   1.00   2.63  500.0   0.00      0     18    300.0   0.00   0.00 0.5991   0.015   0.004   0.000   0.000   0.000   0.000   0.000   0.000   0.000   0.000      0      0      0       0       0   6.800  192.935
 1995 049   118   115  18.628     1  0.075     90      0      0     20    109    109      0      0    0.0  0.000     18   0.00   0.00   1.00   0.87   0.00   0.00   0.00   1.00   2.63  500.0   0.00      0     18    300.0   0.00   0.00 0.6037   0.015   0.004   0.000   0.000   0.000   0.000   0.000   0.000   0.000   0.000      0      0      0       0       0   6.050  196.289
 1995 050   119   116  18.739     1  0.076     90      0      0     20    109    109      0      0    0.0  0.000     19   0.00   0.00   1.00   0.87   0.00   0.00   0.00   1.00   2.63  500.0   0.00      0     19    300.0   0.00   0.00 0.6059   0.014   0.004   0.000   0.000   0.000   0.000   0.000   0.000   0.000   0.000      0      0      0       0       0   4.500  198.810
 1995 051   120   117  18.957     1  0.078     91      0      0     21    110    110      0      0    0.0  0.000     19   0.00   0.00   1.00   0.87   0.00   0.00   0.00   1.00   2.63  500.0   0.00      0     19    300.0   0.00   0.00 0.6102   0.014   0.003   0.000   0.000   0.000   0.000   0.000   0.000   0.000   0.000      0      0      0       0       0   8.750  203.763
 1995 052   121   118  19.222     1  0.080     91      0      0     21    112    112      0      0    0.0  0.000     20   0.00   0.00   1.00   0.87   0.00   0.00   0.00   1.00   2.63  500.0   0.00      0     20    300.0   0.00   0.00 0.6154   0.014   0.003   0.000   0.000   0.000   0.000   0.000   0.000   0.000   0.000      0      0      0       0       0  10.550  209.797
 1995 053   122   119  19.355     1  0.081     92      0      0     21    113    113      0      0    0.0  0.000     20   0.00   0.00   1.00   0.87   0.00   0.00   0.00   1.00   2.63  500.0   0.00      0     20    300.0   0.00   0.00 0.6180   0.014   0.003   0.000   0.000   0.000   0.000   0.000   0.000   0.000   0.000      0      0      0       0       0   5.260  212.836
 1995 054   123   120  19.445     1  0.082     92      0      0     21    113    113      0      0    0.0  0.000     21   0.00   0.00   1.00   0.87   0.00   0.00   0.00   1.00   2.64  500.0   0.00      0     21    300.0   0.00   0.00 0.6197   0.014   0.003   0.000   0.000   0.000   0.000   0.000   0.000   0.000   0.000      0      0      0       0       0   3.489  214.873
 1995 055   124   121  19.551     1  0.083     93      0      0     21    114    114      0      0    0.0  0.000     21   0.00   0.00   1.00   0.87   0.00   0.00   0.00   1.00   2.66  500.0   0.00      0     21    300.0   0.00   0.00 0.6217   0.014   0.003   0.000   0.000   0.000   0.000   0.000   0.000   0.000   0.000      0      0      0       0       0   4.100  217.290
 1995 056   125   122  19.630     1  0.084     93      0      0     21    114    114      0      0    0.0  0.000     21   0.00   0.00   1.00   0.87   0.00   0.00   0.00   1.00   2.67  500.0   0.00      0     21    300.0   0.00   0.00 0.6232   0.014   0.003   0.000   0.000   0.000   0.000   0.000   0.000   0.000   0.000      0      0      0       0       0   3.000  219.077
 1995 057   126   123  19.702     1  0.084     93      0      0     21    115    115      0      0    0.0  0.000     21   0.00   0.00   1.00   0.86   0.00   0.00   0.00   1.00   2.69  500.0   0.00      0     21    300.0   0.00   0.00 0.6245   0.013   0.003   0.000   0.000   0.000   0.000   0.000   0.000   0.000   0.000      0      0      0       0       0   2.729  220.718
 1995 058   127   124  19.789     1  0.085     93      0      0     21    116    116      0      0    0.0  0.000     22   0.00   0.00   1.00   0.85   0.00   0.00   0.00   1.00   2.70  500.0   0.00      0     22    300.0   0.00   0.00 0.6261   0.013   0.003   0.000   0.000   0.000   0.000   0.000   0.000   0.000   0.000      0      0      0       0       0   3.268  222.703
 1995 059   128   125  19.927     1  0.086     94      0      0     21    116    116      0      0    0.0  0.000     22   0.00   0.00   1.00   0.85   0.00   0.00   0.00   1.00   2.71  500.0   0.00      0     22    300.0   0.00   0.00 0.6286   0.013   0.003   0.000   0.000   0.000   0.000   0.000   0.000   0.000   0.000      0      0      0       0       0   5.100  225.830
 1995 060   129   126  20.174     1  0.087     94      0      0     22    117    117      0      0    0.0  0.000     22   0.00   0.00   1.00   0.85   0.00   0.00   0.00   1.00   2.72  500.0   0.00      0     22    300.0   0.00   0.00 0.6331   0.013   0.003   0.000   0.000   0.000   0.000   0.000   0.000   0.000   0.000      0      0      0       0       0   9.100  231.463
 1995 061   130   127  20.320     1  0.087     95      0      0     22    118    118      0      0    0.0  0.000     23   0.00   0.00   1.00   0.84   0.00   0.00   0.00   1.00   2.71  500.0   0.00      0     23    300.0   0.00   0.00 0.6357   0.013   0.003   0.000   0.000   0.000   0.000   0.000   0.000   0.000   0.000      0      0      0       0       0   5.300  234.775
 1995 062   131   128  20.453     1  0.088     95      0      0     22    119    119      0      0    0.0  0.000     24   0.00   0.00   1.00   0.85   0.00   0.00   0.00   1.00   2.71  500.0   0.00      0     24    300.0   0.00   0.00 0.6380   0.013   0.003   0.000   0.000   0.000   0.000   0.000   0.000   0.000   0.000      0      0      0       0       0   4.800  237.802
 1995 063   132   129  20.528     1  0.088     95      0      0     22    120    120      0      0    0.0  0.000     24   0.00   0.00   1.00   0.85   0.00   0.00   0.00   1.00   2.72  500.0   0.00      0     24    300.0   0.00   0.00 0.6394   0.013   0.003   0.000   0.000   0.000   0.000   0.000   0.000   0.000   0.000      0      0      0       0       0   2.700  239.521
 1995 064   133   130  20.631     1  0.089     96      0      0     23    121    121      0      0    0.0  0.000     25   0.00   0.00   1.00   0.85   0.00   0.00   0.00   1.00   2.72  500.0   0.00      0     25    300.0   0.00   0.00 0.6411   0.013   0.003   0.000   0.000   0.000   0.000   0.000   0.000   0.000   0.000      0      0      0       0       0   3.632  241.854
 1995 065   134   131  20.779     1  0.090     97      0      0     23    122    122      0      0    0.0  0.000     25   0.00   0.00   1.00   0.85   0.00   0.00   0.00   1.00   2.71  500.0   0.00      0     25    300.0   0.00   0.00 0.6437   0.013   0.003   0.000   0.000   0.000   0.000   0.000   0.000   0.000   0.000      0      0      0       0       0   5.200  245.224
 1995 066   135   132  20.865     1  0.091     97      0      0     23    123    123      0      0    0.0  0.000     26   0.00   0.00   1.00   0.85   0.00   0.00   0.00   1.00   2.71  500.0   0.00      0     26    300.0   0.00   0.00 0.6452   0.012   0.003   0.000   0.000   0.000   0.000   0.000   0.000   0.000   0.000      0      0      0       0       0   2.984  247.175
 1995 067   136   133  20.998     1  0.092     98      0      0     23    125    125      0      0    0.0  0.000     26   0.00   0.00   1.00   0.85   0.00   0.00   0.00   1.00   2.71  500.0   0.00      0     26    300.0   0.00   0.00 0.6474   0.012   0.003   0.000   0.000   0.000   0.000   0.000   0.000   0.000   0.000      0      0      0       0       0   4.587  250.200
 1995 068   137   134  21.131     1  0.093     98      0      0     24    126    126      0      0    0.0  0.000     27   0.00   0.00   1.00   0.86   0.00   0.00   0.00   1.00   2.70  500.0   0.00      0     27    300.0   0.00   0.00 0.6496   0.012   0.003   0.000   0.000   0.000   0.000   0.000   0.000   0.000   0.000      0      0      0       0       0   4.550  253.227
 1995 069   138   135  21.280     1  0.095     99      0      0     24    128    128      0      0    0.0  0.000     28   0.00   0.00   1.00   0.86   0.00   0.00   0.00   1.00   2.69  500.0   0.00      0     28    300.0   0.00   0.00 0.6521   0.012   0.003   0.000   0.000   0.000   0.000   0.000   0.000   0.000   0.000      0      0      0       0       0   5.045  256.612
 1995 070   139   136  21.385     1  0.096    100      0      0     24    129    129      0      0    0.0  0.000     28   0.00   0.00   1.00   0.87   0.00   0.00   0.00   1.00   2.69  500.0   0.00      0     28    300.0   0.00   0.00 0.6539   0.012   0.003   0.000   0.000   0.000   0.000   0.000   0.000   0.000   0.000      0      0      0       0       0   3.550  259.015
 1995 071   140   137  21.522     1  0.098    101      0      0     25    130    130      0      0    0.0  0.000     29   0.00   0.00   1.00   0.87   0.00   0.00   0.00   1.00   2.68  500.0   0.00      0     29    300.0   0.00   0.00 0.6561   0.012   0.003   0.000   0.000   0.000   0.000   0.000   0.000   0.000   0.000      0      0      0       0       0   4.576  262.137
 1995 072   141   138  21.594     1  0.099    101      0      0     25    131    131      0      0    0.0  0.000     29   0.00   0.00   1.00   0.87   0.00   0.00   0.00   1.00   2.69  500.0   0.00      0     29    300.0   0.00   0.00 0.6573   0.012   0.003   0.000   0.000   0.000   0.000   0.000   0.000   0.000   0.000      0      0      0       0       0   2.350  263.753
 1995 073   142   139  21.604     1  0.098    101      0      0     25    131    131      0      0    0.0  0.000     29   0.00   0.00   1.00   0.87   0.00   0.00   0.00   1.00   2.70  500.0   0.00      0     29    300.0   0.00   0.00 0.6574   0.012   0.003   0.000   0.000   0.000   0.000   0.000   0.000   0.000   0.000      0      0      0       0       0   0.330  263.982
 1995 074   143   140  21.640     1  0.098    101      0      0     24    131    131      0      0    0.0  0.000     29   0.00   0.00   1.00   0.87   0.00   0.00   0.00   1.00   2.71  500.0   0.00      0     29    300.0   0.00   0.00 0.6580   0.012   0.003   0.000   0.000   0.000   0.000   0.000   0.000   0.000   0.000      0      0      0       0       0   1.169  264.799
 1995 075   144   141  21.753     1  0.100    101      0      0     25    132    132      0      0    0.0  0.000     30   0.00   0.00   1.00   0.86   0.00   0.00   0.00   1.00   2.71  500.0   0.00      0     30    300.0   0.00   0.00 0.6598   0.011   0.003   0.000   0.000   0.000   0.000   0.000   0.000   0.000   0.000      0      0      0       0       0   3.667  267.383
 1995 076   145   142  21.901     1  0.100    102      0      0     25    133    133      0      0    0.0  0.000     30   0.00   0.00   1.00   0.86   0.00   0.00   0.00   1.00   2.72  500.0   0.00      0     30    300.0   0.00   0.00 0.6621   0.011   0.003   0.000   0.000   0.000   0.000   0.000   0.000   0.000   0.000      0      0      0       0       0   4.750  270.756
 1995 077   146   143  22.115     1  0.103    103      0      0     25    135    135      0      0    0.0  0.000     31   0.00   0.00   1.00   0.86   0.00   0.00   0.00   1.00   2.70  500.0   0.00      0     31    300.0   0.00   0.00 0.6655   0.011   0.003   0.000   0.000   0.000   0.000   0.000   0.000   0.000   0.000      0      0      0       0       0   6.800  275.621
 1995 078   147   144  22.277     1  0.104    103      0      0     26    136    136      0      0    0.0  0.000     32   0.00   0.00   1.00   0.87   0.00   0.00   0.00   1.00   2.70  500.0   0.00      0     32    300.0   0.00   0.00 0.6680   0.011   0.003   0.000   0.000   0.000   0.000   0.000   0.000   0.000   0.000      0      0      0       0       0   5.100  279.298
 1995 079   148   145  22.395     1  0.106    104      0      0     26    137    137      0      0    0.0  0.000     33   0.00   0.00   1.00   0.87   0.00   0.00   0.00   1.00   2.69  500.0   0.00      0     33    300.0   0.00   0.00 0.6698   0.011   0.003   0.000   0.000   0.000   0.000   0.000   0.000   0.000   0.000      0      0      0       0       0   3.700  281.985
 1995 080   149   146  22.525     1  0.107    105      0      0     26    138    138      0      0    0.0  0.000     33   0.00   0.00   1.00   0.87   0.00   0.00   0.00   1.00   2.69  500.0   0.00      0     33    300.0   0.00   0.00 0.6718   0.011   0.003   0.000   0.000   0.000   0.000   0.000   0.000   0.000   0.000      0      0      0       0       0   4.050  284.948
 1995 081   150   147  22.652     1  0.109    105      0      0     26    140    140      0      0    0.0  0.000     34   0.00   0.00   1.00   0.87   0.00   0.00   0.00   1.00   2.69  500.0   0.00      0     34    300.0   0.00   0.00 0.6737   0.011   0.003   0.000   0.000   0.000   0.000   0.000   0.000   0.000   0.000      0      0      0       0       0   3.926  287.841
 1995 082   151   148  22.923     1  0.112    106      0      0     27    142    142      0      0    0.0  0.000     35   0.00   0.00   1.00   0.87   0.00   0.00   0.00   1.00   2.67  500.0   0.00      0     35    300.0   0.00   0.00 0.6778   0.011   0.003   0.000   0.000   0.000   0.000   0.000   0.000   0.000   0.000      0      0      0       0       0   8.300  294.001
 1995 083   152   149  23.212     1  0.115    108      0      0     28    144    144      0      0    0.0  0.000     36   0.00   0.00   1.00   0.88   0.00   0.00   0.00   1.00   2.66  500.0   0.00      0     36    300.0   0.00   0.00 0.6821   0.011   0.003   0.000   0.000   0.000   0.000   0.000   0.000   0.000   0.000      0      0      0       0       0   8.800  300.579
 1995 084   153   150  23.426     1  0.116    108      0      0     28    145    145      0      0    0.0  0.000     37   0.00   0.00   1.00   0.89   0.00   0.00   0.00   1.00   2.66  500.0   0.00      0     37    300.0   0.00   0.00 0.6852   0.011   0.003   0.000   0.000   0.000   0.000   0.000   0.000   0.000   0.000      0      0      0       0       0   6.450  305.433
 1995 085   154   151  23.582     1  0.117    109      0      0     28    146    146      0      0    0.0  0.000     37   0.00   0.00   1.00   0.88   0.00   0.00   0.00   1.00   2.66  500.0   0.00      0     37    300.0   0.00   0.00 0.6875   0.010   0.003   0.000   0.000   0.000   0.000   0.000   0.000   0.000   0.000      0      0      0       0       0   4.700  308.994
 1995 086   155   152  23.760     1  0.118    109      0      0     28    147    147      0      0    0.0  0.000     38   0.00   0.00   1.00   0.88   0.00   0.00   0.00   1.00   2.67  500.0   0.00      0     38    300.0   0.00   0.00 0.6901   0.010   0.003   0.000   0.000   0.000   0.000   0.000   0.000   0.000   0.000      0      0      0       0       0   5.309  313.044
 1995 087   156   153  23.813     1  0.118    109      0      0     28    148    148      0      0    0.0  0.000     38   0.00   0.00   1.00   0.88   0.00   0.00   0.00   1.00   2.68  500.0   0.00      0     38    300.0   0.00   0.00 0.6909   0.010   0.003   0.000   0.000   0.000   0.000   0.000   0.000   0.000   0.000      0      0      0       0       0   1.555  314.238
 1995 088   157   154  23.829     1  0.118    109      0      0     28    148    148      0      0    0.0  0.000     38   0.00   0.00   1.00   0.88   0.00   0.00   0.00   1.00   2.70  500.0   0.00      0     38    300.0   0.00   0.00 0.6911   0.010   0.003   0.000   0.000   0.000   0.000   0.000   0.000   0.000   0.000      0      0      0       0       0   0.485  314.613
 1995 089   158   155  23.904     1  0.119    110      0      0     28    148    148      0      0    0.0  0.000     38   0.00   0.00   1.00   0.87   0.00   0.00   0.00   1.00   2.72  500.0   0.00      0     38    300.0   0.00   0.00 0.6922   0.010   0.003   0.000   0.000   0.000   0.000   0.000   0.000   0.000   0.000      0      0      0       0       0   2.202  316.326
 1995 090   159   156  24.037     1  0.121    110      0      0     28    150    150      0      0    0.0  0.000     39   0.00   0.00   1.00   0.86   0.00   0.00   0.00   1.00   2.72  500.0   0.00      0     39    300.0   0.00   0.00 0.6941   0.010   0.003   0.000   0.000   0.000   0.000   0.000   0.000   0.000   0.000      0      0      0       0       0   3.850  319.340
 1995 091   160   157  24.246     1  0.121    111      0      0     28    150    150      0      0    0.0  0.000     39   0.00   0.00   1.00   0.86   0.00   0.00   0.00   1.00   2.73  500.0   0.00      0     39    300.0   0.00   0.00 0.6971   0.010   0.003   0.000   0.000   0.000   0.000   0.000   0.000   0.000   0.000      0      0      0       0       0   6.050  324.105
 1995 092   161   158  24.699     1  0.126    112      0      0     29    154    154      0      0    0.0  0.000     41   0.00   0.00   1.00   0.85   0.00   0.00   0.00   1.00   2.71  500.0   0.00      0     41    300.0   0.00   0.00 0.7035   0.010   0.003   0.000   0.000   0.000   0.000   0.000   0.000   0.000   0.000      0      0      0       0       0  13.000  334.408
 1995 093   162   159  25.167     1  0.131    114      0      0     31    157    157      0      0    0.0  0.000     43   0.00   0.00   1.00   0.85   0.00   0.00   0.00   1.00   2.68  500.0   0.00      0     43    300.0   0.00   0.00 0.7100   0.010   0.003   0.000   0.000   0.000   0.000   0.000   0.000   0.000   0.000      0      0      0       0       0  13.350  345.051
 1995 094   163   160  25.421     1  0.133    115      0      0     31    159    159      0      0    0.0  0.000     43   0.00   0.00   1.00   0.87   0.00   0.00   0.00   1.00   2.68  500.0   0.00      0     43    300.0   0.00   0.00 0.7135   0.010   0.003   0.000   0.000   0.000   0.000   0.000   0.000   0.000   0.000      0      0      0       0       0   7.200  350.825
 1995 095   164   161  25.625     1  0.137    116      0      0     32    162    162      0      0    0.0  0.000     45   0.00   0.00   1.00   0.86   0.00   0.00   0.00   1.00   2.67  500.0   0.00      0     45    300.0   0.00   0.00 0.7164   0.010   0.003   0.000   0.000   0.000   0.000   0.000   0.000   0.000   0.000      0      0      0       0       0   5.750  355.463
 1995 096   165   162  25.978     1  0.139    117      0      0     33    164    164      0      0    0.0  0.000     46   0.00   0.00   1.00   0.87   0.00   0.00   0.00   1.00   2.67  500.0   0.00      0     46    300.0   0.00   0.00 0.7212   0.010   0.003   0.000   0.000   0.000   0.000   0.000   0.000   0.000   0.000      0      0      0       0       0   9.900  363.495
 1995 097   166   163  26.301     1  0.141    118      0      0     33    165    165      0      0    0.0  0.000     46   0.00   0.00   1.00   0.87   0.00   0.00   0.00   1.00   2.68  500.0   0.00      0     46    300.0   0.00   0.00 0.7256   0.009   0.003   0.000   0.000   0.000   0.000   0.000   0.000   0.000   0.000      0      0      0       0       0   9.000  370.838
 1995 098   167   164  26.486     1  0.144    119      0      0     33    167    167      0      0    0.0  0.000     48   0.00   0.00   1.00   0.86   0.00   0.00   0.00   1.00   2.69  500.0   0.00      0     48    300.0   0.00   0.00 0.7282   0.009   0.003   0.000   0.000   0.000   0.000   0.000   0.000   0.000   0.000      0      0      0       0       0   5.150  375.062
 1995 099   168   165  26.602     1  0.148    120      0      0     34    170    170      0      0    0.0  0.000     49   0.00   0.00   1.00   0.86   0.00   0.00   0.00   1.00   2.69  500.0   0.00      0     49    300.0   0.00   0.00 0.7297   0.009   0.003   0.000   0.000   0.000   0.000   0.000   0.000   0.000   0.000      0      0      0       0       0   3.200  377.702
 1995 100   169   166  26.788     1  0.148    121      0      0     34    170    170      0      0    0.0  0.000     49   0.00   0.00   1.00   0.85   0.00   0.00   0.00   1.00   2.71  500.0   0.00      0     49    300.0   0.00   0.00 0.7322   0.009   0.003   0.000   0.000   0.000   0.000   0.000   0.000   0.000   0.000      0      0      0       0       0   5.100  381.931
 1995 101   170   167  27.041     1  0.150    121      0      0     34    171    171      0      0    0.0  0.000     50   0.00   0.00   1.00   0.84   0.00   0.00   0.00   1.00   2.71  500.0   0.00      0     50    300.0   0.00   0.00 0.7356   0.009   0.003   0.000   0.000   0.000   0.000   0.000   0.000   0.000   0.000      0      0      0       0       0   6.900  387.682
 1995 102   171   168  27.299     1  0.152    122      0      0     34    172    172      0      0    0.0  0.000     50   0.00   0.00   1.00   0.84   0.00   0.00   0.00   1.00   2.71  500.0   0.00      0     50    300.0   0.00   0.00 0.7391   0.009   0.003   0.000   0.000   0.000   0.000   0.000   0.000   0.000   0.000      0      0      0       0       0   7.000  393.548
 1995 103   172   169  27.430     1  0.155    123      0      0     35    175    175      0      0    0.0  0.000     52   0.00   0.00   1.00   0.84   0.00   0.00   0.00   1.00   2.70  500.0   0.00      0     52    300.0   0.00   0.00 0.7408   0.009   0.003   0.000   0.000   0.000   0.000   0.000   0.000   0.000   0.000      0      0      0       0       0   3.550  396.537
 1995 104   173   170  27.684     1  0.161    125      0      0     37    180    180      0      0    0.0  0.000     54   0.00   0.00   1.00   0.84   0.00   0.00   0.00   1.00   2.68  500.0   0.00      0     54    300.0   0.00   0.00 0.7441   0.009   0.003   0.001   0.000   0.000   0.000   0.000   0.000   0.000   0.000      0      0      0       0       0   6.829  402.317
 1995 105   174   171  27.983     1  0.167    127      0      0     38    184    184      0      0    0.0  0.000     56   0.00   0.00   1.00   0.85   0.00   0.00   0.00   1.00   2.65  500.0   0.00      0     56    300.0   0.00   0.00 0.7481   0.009   0.003   0.001   0.000   0.000   0.000   0.000   0.000   0.000   0.000      0      0      0       0       0   8.000  409.120
 1995 106   175   172  28.199     1  0.169    128      0      0     39    186    186      0      0    0.0  0.000     57   0.00   0.00   1.00   0.86   0.00   0.00   0.00   1.00   2.66  500.0   0.00      0     57    300.0   0.00   0.00 0.7509   0.009   0.003   0.001   0.000   0.000   0.000   0.000   0.000   0.000   0.000      0      0      0       0       0   5.750  414.033
 1995 107   176   173  28.360     1  0.171    129      0      0     39    188    188      0      0    0.0  0.000     58   0.00   0.00   1.00   0.86   0.00   0.00   0.00   1.00   2.65  500.0   0.00      0     58    300.0   0.00   0.00 0.7530   0.009   0.003   0.001   0.000   0.000   0.000   0.000   0.000   0.000   0.000      0      0      0       0       0   4.250  417.682
 1995 108   177   174  28.714     1  0.175    131      0      0     40    191    191      0      0    0.0  0.000     59   0.00   0.00   1.00   0.85   0.00   0.00   0.00   1.00   2.63  500.0   0.00      0     59    300.0   0.00   0.00 0.7576   0.009   0.003   0.001   0.000   0.000   0.000   0.000   0.000   0.000   0.000      0      0      0       0       0   9.350  425.746
 1995 109   178   175  28.950     1  0.177    132      0      0     40    192    192      0      0    0.0  0.000     60   0.00   0.00   1.00   0.86   0.00   0.00   0.00   1.00   2.62  500.0   0.00      0     60    300.0   0.00   0.00 0.7606   0.009   0.003   0.001   0.000   0.000   0.000   0.000   0.000   0.000   0.000      0      0      0       0       0   6.200  431.117
 1995 110   179   176  29.197     1  0.180    133      0      0     41    195    195      0      0    0.0  0.000     61   0.00   0.00   1.00   0.86   0.00   0.00   0.00   1.00   2.61  500.0   0.00      0     61    300.0   0.00   0.00 0.7638   0.009   0.003   0.001   0.000   0.000   0.000   0.000   0.000   0.000   0.000      0      0      0       0       0   6.450  436.730
 1995 111   180   177  29.508     1  0.185    135      0      0     42    198    198      0      0    0.0  0.000     63   0.00   0.00   1.00   0.87   0.00   0.00   0.00   1.00   2.60  500.0   0.00      0     63    300.0   0.00   0.00 0.7677   0.009   0.003   0.001   0.000   0.000   0.000   0.000   0.000   0.000   0.000      0      0      0       0       0   8.100  443.809
 1995 112   181   178  30.077     2  0.191    137      1      0     43    203    203      0      0    0.0  0.000     65   0.00   0.00   1.00   0.87   0.00   0.00   0.00   1.00   2.57  619.7   0.00      0     65    300.0   0.00   0.00 0.7751   0.009   0.003   0.001   0.000   0.000   0.000   0.000   0.000   0.000   0.000      0      0      0       0       0  14.950    1.929
 1995 113   182   179  30.751     2  0.196    139      2      0     45    208    208      0      0    0.0  0.000     67   0.00   0.00   1.00   0.87   0.00   0.00   0.00   1.00   2.56  598.5   0.00      0     67    300.0   0.00   0.00 0.7833   0.008   0.003   0.001   0.000   0.000   0.000   0.000   0.000   0.000   0.000      0      0      0       0       0  16.800   18.729
 1995 114   183   180  31.446     2  0.202    141      3      0     47    213    213      0      0    0.0  0.000     69   0.00   0.00   1.00   0.87   0.00   0.00   0.00   1.00   2.54  567.2   0.00      0     69    300.0   0.00   0.00 0.7918   0.008   0.003   0.001   0.000   0.000   0.000   0.000   0.000   0.000   0.000      0      0      0       0       0  17.300   36.029
 1995 115   184   181  32.041     2  0.205    142      4      0     48    217    217      0      0    0.0  0.000     71   0.00   0.00   1.00   0.87   0.00   0.00   0.00   1.00   2.54  537.7   0.00      0     71    300.0   0.00   0.00 0.7991   0.008   0.003   0.001   0.001   0.000   0.000   0.000   0.000   0.000   0.000      0      0      0       0       0  14.850   50.879
 1995 116   185   182  32.569     2  0.210    145      6      0     50    223    223      0      0    0.0  0.000     73   0.00   0.00   1.00   0.85   0.00   0.00   0.00   1.00   2.53  511.1   0.00      0     73    300.0   0.00   0.00 0.8055   0.008   0.003   0.001   0.001   0.000   0.000   0.000   0.000   0.000   0.000      0      0      0       0       0  13.150   64.029
 1995 117   186   183  32.932     2  0.211    145      6      0     50    225    225      0      0    0.0  0.000     74   0.00   0.00   1.00   0.85   0.00   0.00   0.00   1.00   2.56  500.0   0.00      0     74    300.0   0.00   0.00 0.8100   0.008   0.003   0.001   0.001   0.000   0.000   0.000   0.000   0.000   0.000      0      0      0       0       0   9.050   73.079
 1995 118   187   184  33.225     2  0.214    147      7      0     51    228    228      0      0    0.0  0.000     75   0.00   0.00   1.00   0.83   0.00   0.00   0.00   1.00   2.57  500.0   0.00      0     75    300.0   0.00   0.00 0.8136   0.008   0.003   0.001   0.001   0.000   0.000   0.000   0.000   0.000   0.000      0      0      0       0       0   7.300   80.379
 1995 119   188   185  33.554     2  0.222    149      9      0     53    236    236      0      0    0.0  0.000     78   0.00   0.00   1.00   0.81   0.00   0.00   0.00   1.00   2.56  500.0   0.00      0     78    300.0   0.00   0.00 0.8176   0.008   0.003   0.001   0.001   0.000   0.000   0.000   0.000   0.000   0.000      0      0      0       0       0   8.200   88.579
 1995 120   189   186  33.963     2  0.228    151     11      0     55    242    242      0      0    0.0  0.000     80   0.00   0.00   1.00   0.82   0.00   0.00   0.00   1.00   2.55  500.0   0.00      0     80    300.0   0.00   0.00 0.8226   0.008   0.003   0.001   0.001   0.000   0.000   0.000   0.000   0.000   0.000      0      0      0       0       0  10.200   98.779
 1995 121   190   187  34.455     2  0.237    154     13      0     58    251    251      0      0    0.0  0.000     83   0.00   0.00   1.00   0.81   0.00   0.00   0.00   1.00   2.53  500.0   0.00      0     83    300.0   0.00   0.00 0.8286   0.008   0.003   0.001   0.001   0.000   0.000   0.000   0.000   0.000   0.000      0      0      0       0       0  12.250  111.029
 1995 122   191   188  34.858     2  0.246    158     16      0     61    260    260      0      0    0.0  0.000     86   0.00   0.00   1.00   0.82   0.00   0.00   0.00   1.00   2.51  500.0   0.00      0     86    300.0   0.00   0.00 0.8335   0.008   0.003   0.001   0.001   0.000   0.000   0.000   0.000   0.000   0.000      0      0      0       0       0  10.050  121.079
 1995 123   192   189  35.322     2  0.255    161     19      0     64    270    270      0      0    0.0  0.000     89   0.00   0.00   1.00   0.83   0.00   0.00   0.00   1.00   2.49  500.0   0.00      0     89    300.0   0.00   0.00 0.8392   0.008   0.003   0.001   0.001   0.000   0.000   0.000   0.000   0.000   0.000      0      0      0       0       0  11.550  132.629
 1995 124   193   190  35.855     2  0.264    164     23      0     67    279    279      0      0    0.0  0.000     92   0.00   0.00   1.00   0.83   0.00   0.00   0.00   1.00   2.47  500.0   0.00      0     92    300.0   0.00   0.00 0.8457   0.008   0.003   0.001   0.001   0.001   0.000   0.000   0.000   0.000   0.000      0      0      0       0       0  13.300  145.929
 1995 125   194   191  36.487     2  0.270    167     26      0     70    288    288      0      0    0.0  0.000     95   0.00   0.00   1.00   0.83   0.00   0.00   0.00   1.00   2.45  500.0   0.00      0     95    300.0   0.00   0.00 0.8535   0.008   0.003   0.001   0.001   0.001   0.000   0.000   0.000   0.000   0.000      0      0      0       0       0  15.750  161.679
 1995 126   195   192  37.115     2  0.276    170     30      0     73    298    298      0      0    0.0  0.000     98   0.00   0.00   1.00   0.83   0.00   0.00   0.00   1.00   2.44  500.0   0.00      0     98    300.0   0.00   0.00 0.8611   0.008   0.003   0.001   0.001   0.001   0.000   0.000   0.000   0.000   0.000      0      0      0       0       0  15.650  177.329
 1995 127   196   193  37.593     2  0.283    173     34      0     77    309    309      0      0    0.0  0.000    101   0.00   0.00   1.00   0.83   0.00   0.00   0.00   1.00   2.42  500.0   0.00      0    101    300.0   0.00   0.00 0.8670   0.008   0.003   0.001   0.001   0.001   0.000   0.000   0.000   0.000   0.000      0      0      0       0       0  11.900  189.229
 1995 128   197   194  38.166     2  0.289    175     38      0     79    317    317      0      0    0.0  0.000    104   0.00   0.00   1.00   0.82   0.00   0.00   0.00   1.00   2.42  500.0   0.00      0    104    300.0   0.00   0.00 0.8740   0.008   0.003   0.001   0.001   0.001   0.000   0.000   0.000   0.000   0.000      0      0      0       0       0  14.300  203.529
 1995 129   198   195  38.568     2  0.293    177     41      0     81    323    323      0      0    0.0  0.000    105   0.00   0.00   1.00   0.82   0.00   0.00   0.00   1.00   2.43  500.0   0.00      0    105    300.0   0.00   0.00 0.8789   0.008   0.003   0.001   0.001   0.001   0.000   0.000   0.000   0.000   0.000      0      0      0       0       0  10.000  213.529
 1995 130   199   196  38.897     2  0.297    179     44      0     83    329    329      0      0    0.0  0.000    107   0.00   0.00   1.00   0.79   0.00   0.00   0.00   1.00   2.45  500.0   0.00      0    107    300.0   0.00   0.00 0.8829   0.008   0.003   0.001   0.001   0.001   0.000   0.000   0.000   0.000   0.000      0      0      0       0       0   8.200  221.729
 1995 131   200   197  39.258     2  0.306    182     49      0     86    341    341      0      0    0.0  0.000    110   0.00   0.00   1.00   0.75   0.00   0.00   0.00   1.00   2.44  500.0   0.00      0    110    300.0   0.00   0.00 0.8873   0.008   0.003   0.001   0.001   0.001   0.000   0.000   0.000   0.000   0.000      0      0      0       0       0   9.000  230.729
 1995 132   201   198  39.595     2  0.312    184     53      0     88    349    349      0      0    0.0  0.000    112   0.00   0.00   1.00   0.74   0.00   0.00   0.00   1.00   2.44  500.0   0.00      0    112    300.0   0.00   0.00 0.8915   0.008   0.003   0.001   0.001   0.001   0.000   0.000   0.000   0.000   0.000      0      0      0       0       0   8.400  239.129
 1995 133   202   199  39.914     2  0.313    184     54      0     88    351    351      0      0    0.0  0.000    113   0.00   0.00   1.00   0.71   0.00   0.00   0.00   1.00   2.46  500.0   0.00      0    113    300.0   0.00   0.00 0.8954   0.008   0.004   0.001   0.001   0.001   0.000   0.000   0.000   0.000   0.000      0      0      0       0       0   7.950  247.079
 1995 134   203   200  40.195     2  0.324    188     62      0     93    367    367      0      0    0.0  0.000    117   0.00   0.00   1.00   0.67   0.00   0.00   0.00   1.00   2.44  500.0   0.00      0    117    300.0   0.00   0.00 0.8988   0.008   0.003   0.001   0.001   0.001   0.000   0.000   0.000   0.000   0.000      0      0      0       0       0   7.000  254.079
 1995 135   204   201  40.461     2  0.332    192     70      0     98    382    382      0      0    0.0  0.000    120   0.00   0.00   1.00   0.69   0.00   0.00   0.00   1.00   2.42  500.0   0.00      0    120    300.0   0.00   0.00 0.9020   0.008   0.004   0.001   0.001   0.001   0.000   0.000   0.000   0.000   0.000      0      0      0       0       0   6.650  260.729
 1995 136   205   202  40.832     2  0.340    196     78      0    103    398    398      0      0    0.0  0.000    124   0.00   0.00   1.00   0.69   0.00   0.00   0.00   1.00   2.40  500.0   0.00      0    124    300.0   0.00   0.00 0.9045   0.008   0.004   0.001   0.001   0.001   0.000   0.000   0.000   0.000   0.000      0      0      0       0       0   9.250  269.979
 1995 137   206   203  41.354     2  0.346    199     86      0    107    413    413      0      0    0.0  0.000    128   0.00   0.00   1.00   0.69   0.00   0.00   0.00   1.00   2.39  500.0   0.00      0    128    300.0   0.00   0.00 0.9080   0.008   0.004   0.002   0.001   0.001   0.000   0.000   0.000   0.000   0.000      0      0      0       0       0  13.000  282.979
 1995 138   207   204  41.797     2  0.352    203     95      0    112    428    428      0      0    0.0  0.000    131   0.00   0.00   1.00   0.67   0.00   0.00   0.00   1.00   2.37  500.0   0.00      0    131    300.0   0.00   0.00 0.9110   0.008   0.004   0.002   0.001   0.001   0.000   0.000   0.000   0.000   0.000      0      0      0       0       0  11.050  294.029
 1995 139   208   205  42.122     2  0.359    206    105      0    117    446    446      0      0    0.0  0.000    135   0.00   0.00   1.00   0.68   0.00   0.00   0.00   1.00   2.35  500.0   0.00      0    135    300.0   0.00   0.00 0.9132   0.008   0.004   0.002   0.001   0.001   0.000   0.000   0.000   0.000   0.000      0      0      0       0       0   8.100  302.129
 1995 140   209   206  42.492     2  0.371    211    118      0    124    469    469      0      0    0.0  0.000    140   0.00   0.00   1.00   0.68   0.00   0.00   0.00   1.00   2.32  500.0   0.00      0    140    300.0   0.00   0.00 0.9156   0.008   0.004   0.002   0.001   0.001   0.000   0.000   0.000   0.000   0.000      0      0      0       0       0   9.200  311.329
 1995 141   210   207  42.849     2  0.379    214    128      0    129    485    485      0      0    0.0  0.000    143   0.00   0.00   1.00   0.70   0.00   0.00   0.00   1.00   2.31  500.0   0.00      0    143    300.0   0.00   0.00 0.9180   0.009   0.004   0.002   0.001   0.001   0.001   0.000   0.000   0.000   0.000      0      0      0       0       0   8.900  320.229
 1995 142   211   208  43.410     3  0.375    214    155      0    135    512    512      0      0    0.0  0.000    143   0.00   0.00   1.00   0.68   0.00   0.00   0.00   1.00   2.32  500.0   0.00      0    143    300.0   0.00   0.00 0.9205   0.009   0.004   0.002   0.001   0.001   0.001   0.000   0.000   0.000   0.000      0      0      0       0       0   9.300    5.529
[...]
 1995 164   233   230  65.753     4  4.357   1899   5760      0   1926   9486   9486      0      0    0.0  0.000   1827   0.00   0.00   1.00   0.00   0.00   0.00   0.00   1.00   2.40  500.1   0.00      0   1827    300.0   0.00   0.00 1.0033   0.077   0.053   0.029   0.018   0.013   0.007   0.000   0.000   0.000   0.000      0      0      0       0       0  12.600   98.063
 1995 165   234   231  66.338     4  4.313   1899   6021      0   1935   9747   9747      0      0    0.0  0.000   1827   0.00   0.00   1.00   0.00   0.00   0.00   0.00   1.00   2.40  500.1   0.00      0   1827    300.0   0.00   0.00 1.0071   0.077   0.052   0.029   0.018   0.013   0.007   0.000   0.000   0.000   0.000      0      0      0       0       0  14.050  112.113
 1995 166   235   232  66.871     4  4.264   1899   6185      0   1934   9911   9911      0      0    0.0  0.000   1827   0.00   0.00   1.00   0.00   0.00   0.00   0.00   1.00   2.40  500.1   0.00      0   1827    300.0   0.00   0.00 1.0105   0.076   0.052   0.029   0.018   0.013   0.007   0.000   0.000   0.000   0.000      0      0      0       0       0  12.800  124.913
 1995 167   236   233  67.405     4  4.220   1899   6363      0   1935  10089  10089      0      0    0.0  0.000   1827   0.00   0.00   1.00   0.00   0.00   0.00   0.00   1.00   2.40  500.1   0.00      0   1827    300.0   0.00   0.00 1.0140   0.076   0.052   0.029   0.018   0.013   0.007   0.000   0.000   0.000   0.000      0      0      0       0       0  12.800  137.713
 1995 168   237   234  67.980     4  4.176   1899   6550      0   1936  10277  10277      0      0    0.0  0.000   1827   0.00   0.00   1.00   0.00   0.00   0.00   0.00   1.00   2.40  500.1   0.00      0   1827    300.0   0.00   0.00 1.0177   0.076   0.052   0.029   0.018   0.013   0.007   0.000   0.000   0.000   0.000      0      0      0       0       0  13.800  151.513
 1995 169   238   235  68.588     4  4.128   1899   6729      0   1937  10455  10455      0      0    0.0  0.000   1827   0.00   0.00   1.00   0.00   0.00   0.00   0.00   1.00   2.40  500.1   0.00      0   1827    300.0   0.00   0.00 1.0216   0.076   0.052   0.029   0.018   0.013   0.007   0.001   0.000   0.000   0.000      0      0      0       0       0  14.600  166.113
 1995 170   239   236  69.282     4  4.077   1899   7004      0   1948  10731  10731      0      0    0.0  0.000   1827   0.00   0.00   1.00   0.00   0.00   0.00   0.00   1.00   2.40  500.1   0.00      0   1827    300.0   0.00   0.00 1.0261   0.075   0.052   0.029   0.018   0.013   0.007   0.001   0.000   0.000   0.000      0      0      0       0       0  16.650  182.763
 1995 171   240   237  70.072     5  4.019   1899   6265    977   1952   9992  10968  18210  18210    5.4  0.089   1827   0.00   0.00   1.00   0.00   0.00   0.00   0.00   1.00   2.20  500.1   0.00      0   1827    300.0   0.00   0.00 1.0311   0.075   0.052   0.029   0.019   0.013   0.007   0.001   0.000   0.000   0.000      0      0      0       0       0  18.850    1.613
 1995 172   241   238  70.887     5  4.018   1899   6025   1360   1946   9751  11111  18210  18210    7.5  0.122   1827   0.00   0.00   1.00   0.00   0.00   0.00   0.00   1.00   2.02  500.1   0.00      0   1827    300.0   0.00   0.00 1.0360   0.075   0.052   0.029   0.019   0.013   0.008   0.001   0.000   0.000   0.000      0      0      0       0       0  18.350   19.963
 1995 173   242   239  71.383     5  4.003   1899   5904   1624   1938   9630  11254  18210  18210    8.9  0.144   1827   0.00   0.00   1.00   0.00   0.00   0.00   0.00   1.00   1.89  500.1   0.00      0   1827    300.0   0.00   0.00 1.0390   0.075   0.052   0.029   0.019   0.013   0.008   0.001   0.000   0.000   0.000      0      0      0       0       0  11.150   31.113
 1995 174   243   240  71.881     5  3.990   1899   5746   1892   1926   9472  11364  18210  18210   10.4  0.166   1827   0.00   0.00   1.00   0.00   0.00   0.00   0.00   1.00   1.77  500.1   0.00      0   1827    300.0   0.00   0.00 1.0420   0.074   0.052   0.029   0.018   0.013   0.007   0.001   0.000   0.000   0.000      0      0      0       0       0  11.200   42.313
 1995 175   244   241  72.585     5  3.971   1899   5566   2239   1918   9292  11531  18210  18210   12.3  0.194   1827   0.00   0.00   1.00   0.00   0.00   0.00   0.00   1.00   1.61  500.1   0.00      0   1827    300.0   0.00   0.00 1.0463   0.073   0.052   0.029   0.018   0.013   0.007   0.001   0.000   0.000   0.000      0      0      0       0       0  15.850   58.163
 1995 176   245   242  73.403     5  3.934   1899   5370   2609   1908   9096  11705  18210  18210   14.3  0.223   1827   0.00   0.00   1.00   0.00   0.00   0.00   0.00   1.00   1.44  500.1   0.00      0   1827    300.0   0.00   0.00 1.0512   0.073   0.051   0.029   0.018   0.013   0.007   0.001   0.000   0.000   0.000      0      0      0       0       0  18.400   76.563
 1995 177   246   243  74.205     5  3.878   1899   5253   2956   1899   8979  11934  18210  18210   16.2  0.248   1827   0.00   0.00   1.00   0.00   0.00   0.00   0.00   1.00   1.29  500.1   0.00      0   1827    300.0   0.00   0.00 1.0561   0.072   0.051   0.028   0.018   0.013   0.007   0.001   0.000   0.000   0.000      0      0      0       0       0  18.050   94.613
 1995 178   247   244  75.083     5  3.811   1899   5111   3312   1888   8837  12149  18210  18210   18.2  0.273   1827   0.00   0.00   1.00   0.00   0.00   0.00   0.00   1.00   1.14  500.1   0.00      0   1827    300.0   0.00   0.00 1.0614   0.072   0.051   0.028   0.018   0.013   0.007   0.001   0.000   0.000   0.000      0      0      0       0       0  19.747  114.359
 1995 179   248   245  75.860     5  3.721   1899   5016   3657   1875   8742  12399  18210  18210   20.1  0.295   1827   0.00   0.00   1.00   0.00   0.00   0.00   0.00   1.00   1.01  500.1   0.00      0   1827    300.0   0.00   0.00 1.0661   0.071   0.050   0.028   0.018   0.013   0.007   0.001   0.000   0.000   0.000      0      0      0       0       0  17.500  131.859
 1995 180   249   246  76.725     5  3.629   1899   4899   4010   1861   8626  12636  18210  18210   22.0  0.317   1827   0.00   0.00   1.00   0.00   0.00   0.00   0.00   1.00   0.88  500.1   0.00      0   1827    300.0   0.00   0.00 1.0713   0.071   0.050   0.028   0.018   0.013   0.007   0.001   0.000   0.000   0.000      0      0      0       0       0  19.450  151.309
 1995 181   250   247  77.560     5  3.513   1899   4788   4357   1845   8515  12872  18210  18210   23.9  0.339   1827   0.00   0.00   1.00   0.00   0.00   0.00   0.00   1.00   0.77  500.1   0.00      0   1827    300.0   0.00   0.00 1.0763   0.070   0.050   0.028   0.018   0.013   0.007   0.001   0.000   0.000   0.000      0      0      0       0       0  18.800  170.109
 1995 182   251   248  78.343     5  3.386   1899   4741   4638   1828   8468  13105  18210  18210   25.5  0.354   1827   0.00   0.00   1.00   0.00   0.00   0.00   0.00   1.00   0.68  500.1   0.00      0   1827    300.0   0.00   0.00 1.0811   0.070   0.049   0.028   0.018   0.012   0.007   0.001   0.000   0.000   0.000      0      0      0       0       0  17.600  187.709
 1995 183   252   249  79.034     5  3.255   1899   4741   4747   1809   8468  13215  18210  18210   26.1  0.359   1827   0.00   0.00   1.00   0.00   0.00   0.00   0.00   1.00   0.61  500.1   0.00      0   1827    300.0   0.00   0.00 1.0852   0.069   0.049   0.027   0.017   0.012   0.007   0.001   0.000   0.000   0.000      0      0      0       0       0  15.550  203.259
 1995 184   253   250  79.940     5  3.129   1899   4741   4935   1791   8468  13402  18210  18210   27.1  0.368   1827   0.00   0.00   1.00   0.00   0.00   0.00   0.00   1.00   0.56  500.1   0.00      0   1827    300.0   0.00   0.00 1.0907   0.068   0.048   0.027   0.017   0.012   0.007   0.001   0.000   0.000   0.000      0      0      0       0       0  20.400  223.659
 1995 185   254   251  80.660     5  2.948   1899   4741   5069   1773   8468  13537  18210  18210   27.8  0.374   1827   0.00   0.00   1.00   0.00   0.00   0.00   0.00   1.00   0.52  500.1   0.00      0   1827    300.0   0.00   0.00 1.0951   0.068   0.048   0.027   0.017   0.012   0.007   0.001   0.000   0.000   0.000      0      0      0       0       0  16.200  239.859
 1995 186   255   252  81.345     5  2.794   1899   4741   5239   1756   8468  13707  18210  18210   28.8  0.382   1827   0.00   0.00   1.00   0.00   0.00   0.00   0.00   1.00   0.49  500.1   0.00      0   1827    300.0   0.00   0.00 1.0992   0.067   0.047   0.026   0.017   0.012   0.007   0.001   0.000   0.000   0.000      0      0      0       0       0  15.400  255.259
 1995 187   256   253  82.140     5  2.638   1899   4741   5427   1738   8468  13894  18210  18210   29.8  0.391   1827   0.00   0.00   1.00   0.00   0.00   0.00   0.00   1.00   0.47  500.1   0.00      0   1827    300.0   0.00   0.00 1.1040   0.066   0.047   0.026   0.017   0.012   0.007   0.001   0.000   0.000   0.000      0      0      0       0       0  17.900  273.159
 1995 188   257   254  83.036     5  2.444   1899   4741   5599   1721   8468  14067  18210  18210   30.7  0.398   1827   0.00   0.00   1.00   0.00   0.00   0.00   0.00   1.00   0.44  500.1   0.00      0   1827    300.0   0.00   0.00 1.1094   0.066   0.046   0.026   0.017   0.012   0.007   0.001   0.000   0.000   0.000      0      0      0       0       0  20.153  293.312
 1995 189   258   255  84.016     5  2.209   1899   4741   5744   1703   8468  14211  18210  18210   31.5  0.404   1827   0.00   0.00   1.00   0.00   0.00   0.00   0.00   1.00   0.42  500.1   0.00      0   1827    300.0   0.00   0.00 1.1153   0.065   0.046   0.026   0.016   0.012   0.007   0.001   0.000   0.000   0.000      0      0      0       0       0  22.040  315.352
 1995 190   259   256  85.056     5  1.933   1899   4741   5865   1686   8468  14332  18210  18210   32.2  0.409   1827   0.00   0.00   1.00   0.00   0.00   0.00   0.00   1.00   0.40  500.1   0.00      0   1827    300.0   0.00   0.00 1.1216   0.064   0.045   0.025   0.016   0.011   0.007   0.001   0.000   0.000   0.000      0      0      0       0       0  23.420  338.771
 1995 191   260   257  86.134     5  1.619   1899   4741   5957   1670   8468  14425  18210  18210   32.7  0.413   1827   0.00   0.00   1.04   0.00   0.00   0.00   0.00   1.00   0.37  500.1   0.00      0   1827    300.0   0.00   0.00 1.1281   0.064   0.045   0.025   0.016   0.011   0.007   0.001   0.000   0.000   0.000      0      0      0       0       0  24.250  363.021
 1995 192   261   258  87.173     5  1.256   1899   4741   6050   1653   8468  14518  18210  18210   33.2  0.417   1827   0.00   0.00   1.00   0.00   0.00   0.00   0.00   1.00   0.35  500.1   0.00      0   1827    300.0   0.00   0.00 1.1344   0.063   0.045   0.025   0.016   0.011   0.007   0.001   0.000   0.000   0.000      0      0      0       0       0  23.378  386.399
 1995 193   262   259  88.242     5  0.898   1899   4741   6109   1636   8468  14577  18210  18210   33.5  0.419   1827   0.00   0.01   1.00   0.00   0.00   0.00   0.00   1.00   0.33  500.1   0.00      0   1827    300.0   0.00   0.00 1.1408   0.062   0.044   0.025   0.016   0.011   0.006   0.001   0.000   0.000   0.000      0      0      0       0       0  24.040  410.439
 1995 194   263   260  89.239     5  0.506   1899   4741   6154   1620   8468  14621  18210  18210   33.8  0.421   1827   0.00   0.04   1.00   0.00   0.00   0.00   0.00   1.00   0.30  500.1   0.00      0   1827    300.0   0.00   0.00 1.1469   0.062   0.044   0.024   0.016   0.011   0.006   0.001   0.000   0.000   0.000      0      0      0       0       0  22.444  432.883
 1995 195   264   261  90.000     6  0.121   1899   4741   6154   1604   8468  14621  18210  18210   33.8  0.421   1827   0.00   0.04   1.25   0.00   0.00   0.00   0.00   1.00   0.30  500.1   0.00      0   1827    300.0   0.00   0.00 1.1469   0.061   0.043   0.024   0.016   0.011   0.006   0.001   0.000   0.000   0.000      0      0      0       0       0  23.500    6.383
 1995 196   265   262  90.000     7  0.121   1899   4741   6154   1604   8468  14621  18210  18210   33.8  0.421   1827   0.00   0.04   1.25   0.00   0.00   0.00   0.00   1.00   0.30  500.1   0.00      0   1827    300.0   0.00   0.00 1.1469   0.061   0.043   0.024   0.016   0.011   0.006   0.001   0.000   0.000   0.000      0      0      0       0       0  21.948    8.850
 1995 197   266   263  90.000     7  0.121   1899   4741   6154   1604   8468  14621  18210  18210   33.8  0.421   1827   0.00   0.04   1.25   0.00   0.00   0.00   0.00   1.00   0.30  500.1   0.00      0   1827    300.0   0.00   0.00 1.1469   0.061   0.043   0.024   0.016   0.011   0.006   0.001   0.000   0.000   0.000      0      0      0       0       0  21.948    8.850
 1995 198   267   264  90.000     7  0.121   1899   4741   6154   1604   8468  14621  18210  18210   33.8  0.421   1827   0.00   0.04   1.25   0.00   0.00   0.00   0.00   1.00   0.30  500.1   0.00      0   1827    300.0   0.00   0.00 1.1469   0.061   0.043   0.024   0.016   0.011   0.006   0.001   0.000   0.000   0.000      0      0      0       0       0  21.948    8.850
 1995 199   268   265  90.000     7  0.121   1899   4741   6154   1604   8468  14621  18210  18210   33.8  0.421   1827   0.00   0.04   1.25   0.00   0.00   0.00   0.00   1.00   0.30  500.1   0.00      0   1827    300.0   0.00   0.00 1.1469   0.061   0.043   0.024   0.016   0.011   0.006   0.001   0.000   0.000   0.000      0      0      0       0       0  21.948    8.850
 1995 200   269   266  90.000     7  0.121   1899   4741   6154   1604   8468  14621  18210  18210   33.8  0.421   1827   0.00   0.04   1.25   0.00   0.00   0.00   0.00   1.00   0.30  500.1   0.00      0   1827    300.0   0.00   0.00 1.1469   0.061   0.043   0.024   0.016   0.011   0.006   0.001   0.000   0.000   0.000      0      0      0       0       0  21.948    8.850
 1995 201   270   267  90.000     7  0.121   1899   4741   6154   1604   8468  14621  18210  18210   33.8  0.421   1827   0.00   0.04   1.25   0.00   0.00   0.00   0.00   1.00   0.30  500.1   0.00      0   1827    300.0   0.00   0.00 1.1469   0.061   0.043   0.024   0.016   0.011   0.006   0.001   0.000   0.000   0.000      0      0      0       0       0  21.948    8.850
 1995 202   271   268  90.000     7  0.121   1899   4741   6154   1604   8468  14621  18210  18210   33.8  0.421   1827   0.00   0.04   1.25   0.00   0.00   0.00   0.00   1.00   0.30  500.1   0.00      0   1827    300.0   0.00   0.00 1.1469   0.061   0.043   0.024   0.016   0.011   0.006   0.001   0.000   0.000   0.000      0      0      0       0       0  21.948    8.850
 1995 203   272   269  90.000     7  0.121   1899   4741   6154   1604   8468  14621  18210  18210   33.8  0.421   1827   0.00   0.04   1.25   0.00   0.00   0.00   0.00   1.00   0.30  500.1   0.00      0   1827    300.0   0.00   0.00 1.1469   0.061   0.043   0.024   0.016   0.011   0.006   0.001   0.000   0.000   0.000      0      0      0       0       0  21.948    8.850
 1995 204   273   270  90.000     7  0.121   1899   4741   6154   1604   8468  14621  18210  18210   33.8  0.421   1827   0.00   0.04   1.25   0.00   0.00   0.00   0.00   1.00   0.30  500.1   0.00      0   1827    300.0   0.00   0.00 1.1469   0.061   0.043   0.024   0.016   0.011   0.006   0.001   0.000   0.000   0.000      0      0      0       0       0  21.948    8.850
 1995 205   274   271  90.000     7  0.121   1899   4741   6154   1604   8468  14621  18210  18210   33.8  0.421   1827   0.00   0.04   1.25   0.00   0.00   0.00   0.00   1.00   0.30  500.1   0.00      0   1827    300.0   0.00   0.00 1.1469   0.061   0.043   0.024   0.016   0.011   0.006   0.001   0.000   0.000   0.000      0      0      0       0       0  21.948    8.850
 1995 206   275   272  90.000     7  0.121   1899   4741   6154   1604   8468  14621  18210  18210   33.8  0.421   1827   0.00   0.04   1.25   0.00   0.00   0.00   0.00   1.00   0.30  500.1   0.00      0   1827    300.0   0.00   0.00 1.1469   0.061   0.043   0.024   0.016   0.011   0.006   0.001   0.000   0.000   0.000      0      0      0       0       0  21.948    8.850
 1995 207   276   273  90.000     7  0.121   1899   4741   6154   1604   8468  14621  18210  18210   33.8  0.421   1827   0.00   0.04   1.25   0.00   0.00   0.00   0.00   1.00   0.30  500.1   0.00      0   1827    300.0   0.00   0.00 1.1469   0.061   0.043   0.024   0.016   0.011   0.006   0.001   0.000   0.000   0.000      0      0      0       0       0  21.948    8.850
 1995 208   277   274  90.000     7  0.121   1899   4741   6154   1604   8468  14621  18210  18210   33.8  0.421   1827   0.00   0.04   1.25   0.00   0.00   0.00   0.00   1.00   0.30  500.1   0.00      0   1827    300.0   0.00   0.00 1.1469   0.061   0.043   0.024   0.016   0.011   0.006   0.001   0.000   0.000   0.000      0      0      0       0       0  21.948    8.850
 1995 209   278   275  90.000     7  0.121   1899   4741   6154   1604   8468  14621  18210  18210   33.8  0.421   1827   0.00   0.04   1.25   0.00   0.00   0.00   0.00   1.00   0.30  500.1   0.00      0   1827    300.0   0.00   0.00 1.1469   0.061   0.043   0.024   0.016   0.011   0.006   0.001   0.000   0.000   0.000      0      0      0       0       0  21.948    8.850
 1995 210   279   276  90.000     7  0.121   1899   4741   6154   1604   8468  14621  18210  18210   33.8  0.421   1827   0.00   0.04   1.25   0.00   0.00   0.00   0.00   1.00   0.30  500.1   0.00      0   1827    300.0   0.00   0.00 1.1469   0.061   0.043   0.024   0.016   0.011   0.006   0.001   0.000   0.000   0.000      0      0      0       0       0  21.948    8.850
 1995 211   280   277  90.000     7  0.121   1899   4741   6154   1604   8468  14621  18210  18210   33.8  0.421   1827   0.00   0.04   1.25   0.00   0.00   0.00   0.00   1.00   0.30  500.1   0.00      0   1827    300.0   0.00   0.00 1.1469   0.061   0.043   0.024   0.016   0.011   0.006   0.001   0.000   0.000   0.000      0      0      0       0       0  21.948    8.850
 1995 212   281   278  90.000     7  0.121   1899   4741   6154   1604   8468  14621  18210  18210   33.8  0.421   1827   0.00   0.04   1.25   0.00   0.00   0.00   0.00   1.00   0.30  500.1   0.00      0   1827    300.0   0.00   0.00 1.1469   0.061   0.043   0.024   0.016   0.011   0.006   0.001   0.000   0.000   0.000      0      0      0       0       0  21.948    8.850
 1995 213   282   279  90.000     7  0.121   1899   4741   6154   1604   8468  14621  18210  18210   33.8  0.421   1827   0.00   0.04   1.25   0.00   0.00   0.00   0.00   1.00   0.30  500.1   0.00      0   1827    300.0   0.00   0.00 1.1469   0.061   0.043   0.024   0.016   0.011   0.006   0.001   0.000   0.000   0.000      0      0      0       0       0  21.948    8.850
 1995 214   283   280  90.000     7  0.121   1899   4741   6154   1604   8468  14621  18210  18210   33.8  0.421   1827   0.00   0.04   1.25   0.00   0.00   0.00   0.00   1.00   0.30  500.1   0.00      0   1827    300.0   0.00   0.00 1.1469   0.061   0.043   0.024   0.016   0.011   0.006   0.001   0.000   0.000   0.000      0      0      0       0       0  21.948    8.850
 1995 215   284   281  90.000     7  0.121   1899   4741   6154   1604   8468  14621  18210  18210   33.8  0.421   1827   0.00   0.04   1.25   0.00   0.00   0.00   0.00   1.00   0.30  500.1   0.00      0   1827    300.0   0.00   0.00 1.1469   0.061   0.043   0.024   0.016   0.011   0.006   0.001   0.000   0.000   0.000      0      0      0       0       0  21.948    8.850
 1995 216   285   282  90.000     7  0.121   1899   4741   6154   1604   8468  14621  18210  18210   33.8  0.421   1827   0.00   0.04   1.25   0.00   0.00   0.00   0.00   1.00   0.30  500.1   0.00      0   1827    300.0   0.00   0.00 1.1469   0.061   0.043   0.024   0.016   0.011   0.006   0.001   0.000   0.000   0.000      0      0      0       0       0  21.948    8.850
