*INFO DETAIL FILE

******************************************************************************

*DSSAT Cropping System Model Ver. 4.8.0.027 -release  JAN 10, 2024 00:27:28

*RUN   1        : 1 | 1                              SEDE9501    1

 EXPERIMENT     : SEDE9501 WH en, Duengungs-Kombinationsversuch Seehausen (F1-70
 DATA PATH      :
 TREATMENT  1   : 1 | 1
  

 MAKEFW  YEAR DOY =    0   0
 Y4KDOY - Weather file                                                         
 Not able to find 7-digits first weather date                                  
 Set simulation to 5-digits first weather date                                 

 CSM     YEAR DOY = 1994 297
 RNMODE = B                                                                    
 PATHEX =                                                                      
 FILEX  = SEDE9501.WHX                                                         
 FILEB  = DSSBatch.V48                                                         
 FILEIO = DSSAT48.INP                                                          
 MODEL  = WHAPS048                                                             
 TRTNUM =     1                                                                

 SOILDYN  YEAR DOY = 1994 297
 The soil file has missing or invalid data.                                    
 Default values have been used for these variables:                            
   CEC, ADCOEF                                                                 
 These defaults may or may not be important to your results.                   

 RETC  YEAR DOY = 1994 297
 Soil RETC parameters:                                                         
  LYR DS  SWCN   WCR    Hb Lambd  Alpha     m     n Texture                    
   1   5-99.00 0.051   7.2 0.166  0.007 0.163 1.195 SiltyClay                  
   2  15-99.00 0.051   7.2 0.166  0.007 0.163 1.195 SiltyClay                  
   3  30-99.00 0.056   9.4 0.156  0.006 0.155 1.183 SiltyClay                  
   4  45-99.00 0.056  12.2 0.156  0.004 0.156 1.185 SiltyClay                  
   5  60-99.00 0.056  12.2 0.156  0.004 0.156 1.185 SiltyClay                  
   6  90-99.00 0.069  25.9 0.126  0.002 0.145 1.170 SiltyClay                  
   7 120-99.00 0.046   4.4 0.159  0.011 0.159 1.189 SiltyClay                  
   8 150-99.00 0.054   4.7 0.131  0.011 0.133 1.154 SiltyClay                  
   9 180-99.00 0.058   2.6 0.108  0.017 0.114 1.129 SiltyClay                  
  10 210-99.00 0.058   2.6 0.108  0.017 0.114 1.129 SiltyClay                  

 SOILDYN  YEAR DOY = 1994 297
 Soil ID: IB00000001                                                           
 DEFAULT - DEEP SILTY CLAY                                                     
 GENERIC                                                                       
   SALB SWCON    CN  DMOD  SLPF SMPX                                           
   0.11  0.30  85.0  1.00  1.00 IB001                                          
 Soil layer distribution method: 2                                             
      DS DLAYR    LL   DUL   SAT  Root    BD    OC  CLAY  SILT  SAND           
 LYR  cm    cm  frac  frac  frac  Grow g/cm3     %     %     %     %    pH     
   1   5     5 0.228 0.385 0.481 1.000  1.30  1.75  50.0  45.0   5.0   6.5     
   2  15    10 0.228 0.385 0.481 1.000  1.30  1.75  50.0  45.0   5.0   6.5     
   3  30    15 0.249 0.406 0.482 0.638  1.30  1.60  50.0  45.0   5.0   6.5     
   4  45    15 0.249 0.406 0.465 0.472  1.35  1.45  50.0  45.0   5.0   6.5     
   5  60    15 0.249 0.406 0.465 0.350  1.35  1.45  50.0  45.0   5.0   6.5     
   6  90    30 0.308 0.456 0.468 0.223  1.35  1.10  50.0  45.0   5.0   6.5     
   7 120    30 0.207 0.341 0.452 0.122  1.40  0.65  50.0  45.0   5.0   6.5     
   8 150    30 0.243 0.365 0.455 0.067  1.40  0.30  50.0  45.0   5.0   6.5     
   9 180    30 0.259 0.361 0.457 0.037  1.40  0.10  50.0  45.0   5.0   6.5     
  10 210    30 0.259 0.361 0.457 0.020  1.40  0.01  50.0  45.0   5.0   6.5     

 SOILDYN  YEAR DOY = 1994 297
 Additional soil properties                                                    
                Convert                                                        
    Cation Adsrp  ppm /  SLCF  TOTN  OrgN                                      
   L  Exch  Coef  kg/ha     %     % kg/ha                                      
   1  15.5   0.0   1.54   0.0  0.17  1105                                      
   2  15.5   0.0   0.77   0.0  0.17  2210                                      
   3  15.5   0.0   0.51   0.0  0.17  3315                                      
   4  15.5   0.0   0.49   0.0  0.14  2835                                      
   5  15.5   0.0   0.49   0.0  0.14  2835                                      
   6  15.5   0.0   0.25   0.0  0.11  4455                                      
   7  15.5   0.0   0.24   0.0  0.06  2520                                      
   8  15.5   0.0   0.24   0.0  0.03  1260                                      
   9  15.5   0.0   0.24   0.0  0.01   420                                      
  10  15.5   0.0   0.24   0.0  0.00   -99                                      

 IPWTH   YEAR DOY = 1994 297
 C:\DSSAT48\Weather\SEDE9401.WTH                                               
 Found daily weather data headers for:                                         
   SRAD           Col   7 -  11                                                
   TMAX           Col  13 -  17                                                
   TMIN           Col  19 -  23                                                
   RAIN           Col  25 -  29                                                
   DEWP           Col  31 -  35                                                
   WIND           Col  37 -  41                                                
   PAR            Col  43 -  47                                                
   RHUM           Col  55 -  59                                                

 CO2VAL  YEAR DOY = 1994 297
  767 CO2 data points read from file.                                          
 C:\DSSAT48\StandardData\CO2048.WDA                                            

 TILEVENT  YEAR DOY = 1994 297
              -- Lyr Thick (cm)--  --Blk dens (g/cm3)- ---- SOM-BD --------    
                DL1    DL2    DL3    BD1    BD2    BD3   BDS1   BDS2   BDS3    
 Before till  5.000 10.000 15.000  1.300  1.300  1.300  1.300  1.300  1.300    
 After till   5.556 11.111 15.317  1.170  1.170  1.273                         

 TILEVENT  YEAR DOY = 1994 298
              -- Lyr Thick (cm)--  --Blk dens (g/cm3)- ---- SOM-BD --------    
                DL1    DL2    DL3    BD1    BD2    BD3   BDS1   BDS2   BDS3    
 Before till  5.556 11.111 15.317  1.170  1.170  1.273  1.300  1.300  1.291    
 After till   5.222 10.000 16.756  1.170  1.170  1.273                         

 ENDRUN  YEAR DOY = 1995 216
 Normal end of run        1                                                    

******************************************************************************

*DSSAT Cropping System Model Ver. 4.8.0.027 -release  JAN 10, 2024 00:27:28

*RUN   2        : 1 | 2                     WHAPS048 SEDE9501    2
 MODEL          : WHAPS048 - Wheat
 EXPERIMENT     : SEDE9501 WH en, Duengungs-Kombinationsversuch Seehausen (F1-70
 DATA PATH      :
 TREATMENT  2   : 1 | 2                     WHAPS048
  

 CSM     YEAR DOY = 1994 297
 RNMODE = B                                                                    
 PATHEX =                                                                      
 FILEX  = SEDE9501.WHX                                                         
 FILEB  = DSSBatch.V48                                                         
 FILEIO = DSSAT48.INP                                                          
 MODEL  = WHAPS048                                                             
 TRTNUM =     2                                                                

 SOILDYN  YEAR DOY = 1994 297
 The soil file has missing or invalid data.                                    
 Default values have been used for these variables:                            
   CEC, ADCOEF                                                                 
 These defaults may or may not be important to your results.                   

 RETC  YEAR DOY = 1994 297
 Soil RETC parameters:                                                         
  LYR DS  SWCN   WCR    Hb Lambd  Alpha     m     n Texture                    
   1   5-99.00 0.051   7.2 0.166  0.007 0.163 1.195 SiltyClay                  
   2  15-99.00 0.051   7.2 0.166  0.007 0.163 1.195 SiltyClay                  
   3  30-99.00 0.056   9.4 0.156  0.006 0.155 1.183 SiltyClay                  
   4  45-99.00 0.056  12.2 0.156  0.004 0.156 1.185 SiltyClay                  
   5  60-99.00 0.056  12.2 0.156  0.004 0.156 1.185 SiltyClay                  
   6  90-99.00 0.069  25.9 0.126  0.002 0.145 1.170 SiltyClay                  
   7 120-99.00 0.046   4.4 0.159  0.011 0.159 1.189 SiltyClay                  
   8 150-99.00 0.054   4.7 0.131  0.011 0.133 1.154 SiltyClay                  
   9 180-99.00 0.058   2.6 0.108  0.017 0.114 1.129 SiltyClay                  
  10 210-99.00 0.058   2.6 0.108  0.017 0.114 1.129 SiltyClay                  

 SOILDYN  YEAR DOY = 1994 297
 Soil ID: IB00000001                                                           
 DEFAULT - DEEP SILTY CLAY                                                     
 GENERIC                                                                       
   SALB SWCON    CN  DMOD  SLPF SMPX                                           
   0.11  0.30  85.0  1.00  1.00 IB001                                          
 Soil layer distribution method: 2                                             
      DS DLAYR    LL   DUL   SAT  Root    BD    OC  CLAY  SILT  SAND           
 LYR  cm    cm  frac  frac  frac  Grow g/cm3     %     %     %     %    pH     
   1   5     5 0.228 0.385 0.481 1.000  1.30  1.75  50.0  45.0   5.0   6.5     
   2  15    10 0.228 0.385 0.481 1.000  1.30  1.75  50.0  45.0   5.0   6.5     
   3  30    15 0.249 0.406 0.482 0.638  1.30  1.60  50.0  45.0   5.0   6.5     
   4  45    15 0.249 0.406 0.465 0.472  1.35  1.45  50.0  45.0   5.0   6.5     
   5  60    15 0.249 0.406 0.465 0.350  1.35  1.45  50.0  45.0   5.0   6.5     
   6  90    30 0.308 0.456 0.468 0.223  1.35  1.10  50.0  45.0   5.0   6.5     
   7 120    30 0.207 0.341 0.452 0.122  1.40  0.65  50.0  45.0   5.0   6.5     
   8 150    30 0.243 0.365 0.455 0.067  1.40  0.30  50.0  45.0   5.0   6.5     
   9 180    30 0.259 0.361 0.457 0.037  1.40  0.10  50.0  45.0   5.0   6.5     
  10 210    30 0.259 0.361 0.457 0.020  1.40  0.01  50.0  45.0   5.0   6.5     

 SOILDYN  YEAR DOY = 1994 297
 Additional soil properties                                                    
                Convert                                                        
    Cation Adsrp  ppm /  SLCF  TOTN  OrgN                                      
   L  Exch  Coef  kg/ha     %     % kg/ha                                      
   1  15.5   0.0   1.54   0.0  0.17  1105                                      
   2  15.5   0.0   0.77   0.0  0.17  2210                                      
   3  15.5   0.0   0.51   0.0  0.17  3315                                      
   4  15.5   0.0   0.49   0.0  0.14  2835                                      
   5  15.5   0.0   0.49   0.0  0.14  2835                                      
   6  15.5   0.0   0.25   0.0  0.11  4455                                      
   7  15.5   0.0   0.24   0.0  0.06  2520                                      
   8  15.5   0.0   0.24   0.0  0.03  1260                                      
   9  15.5   0.0   0.24   0.0  0.01   420                                      
  10  15.5   0.0   0.24   0.0  0.00   -99                                      

 IPWTH   YEAR DOY = 1994 297
 C:\DSSAT48\Weather\SEDE9401.WTH                                               
 Found daily weather data headers for:                                         
   SRAD           Col   7 -  11                                                
   TMAX           Col  13 -  17                                                
   TMIN           Col  19 -  23                                                
   RAIN           Col  25 -  29                                                
   DEWP           Col  31 -  35                                                
   WIND           Col  37 -  41                                                
   PAR            Col  43 -  47                                                
   RHUM           Col  55 -  59                                                

 TILEVENT  YEAR DOY = 1994 297
              -- Lyr Thick (cm)--  --Blk dens (g/cm3)- ---- SOM-BD --------    
                DL1    DL2    DL3    BD1    BD2    BD3   BDS1   BDS2   BDS3    
 Before till  5.000 10.000 15.000  1.300  1.300  1.300  1.300  1.300  1.300    
 After till   5.556 11.111 15.317  1.170  1.170  1.273                         

 TILEVENT  YEAR DOY = 1994 298
              -- Lyr Thick (cm)--  --Blk dens (g/cm3)- ---- SOM-BD --------    
                DL1    DL2    DL3    BD1    BD2    BD3   BDS1   BDS2   BDS3    
 Before till  5.556 11.111 15.317  1.170  1.170  1.273  1.300  1.300  1.291    
 After till   5.222 10.000 16.756  1.170  1.170  1.273                         

 ENDRUN  YEAR DOY = 1995 216
 Normal end of run        2                                                    

******************************************************************************

*DSSAT Cropping System Model Ver. 4.8.0.027 -release  JAN 10, 2024 00:27:28

*RUN   3        : 1 | 3                     WHAPS048 SEDE9501    3
 MODEL          : WHAPS048 - Wheat
 EXPERIMENT     : SEDE9501 WH en, Duengungs-Kombinationsversuch Seehausen (F1-70
 DATA PATH      :
 TREATMENT  3   : 1 | 3                     WHAPS048
  

 CSM     YEAR DOY = 1994 297
 RNMODE = B                                                                    
 PATHEX =                                                                      
 FILEX  = SEDE9501.WHX                                                         
 FILEB  = DSSBatch.V48                                                         
 FILEIO = DSSAT48.INP                                                          
 MODEL  = WHAPS048                                                             
 TRTNUM =     3                                                                

 SOILDYN  YEAR DOY = 1994 297
 The soil file has missing or invalid data.                                    
 Default values have been used for these variables:                            
   CEC, ADCOEF                                                                 
 These defaults may or may not be important to your results.                   

 RETC  YEAR DOY = 1994 297
 Soil RETC parameters:                                                         
  LYR DS  SWCN   WCR    Hb Lambd  Alpha     m     n Texture                    
   1   5-99.00 0.051   7.2 0.166  0.007 0.163 1.195 SiltyClay                  
   2  15-99.00 0.051   7.2 0.166  0.007 0.163 1.195 SiltyClay                  
   3  30-99.00 0.056   9.4 0.156  0.006 0.155 1.183 SiltyClay                  
   4  45-99.00 0.056  12.2 0.156  0.004 0.156 1.185 SiltyClay                  
   5  60-99.00 0.056  12.2 0.156  0.004 0.156 1.185 SiltyClay                  
   6  90-99.00 0.069  25.9 0.126  0.002 0.145 1.170 SiltyClay                  
   7 120-99.00 0.046   4.4 0.159  0.011 0.159 1.189 SiltyClay                  
   8 150-99.00 0.054   4.7 0.131  0.011 0.133 1.154 SiltyClay                  
   9 180-99.00 0.058   2.6 0.108  0.017 0.114 1.129 SiltyClay                  
  10 210-99.00 0.058   2.6 0.108  0.017 0.114 1.129 SiltyClay                  

 SOILDYN  YEAR DOY = 1994 297
 Soil ID: IB00000001                                                           
 DEFAULT - DEEP SILTY CLAY                                                     
 GENERIC                                                                       
   SALB SWCON    CN  DMOD  SLPF SMPX                                           
   0.11  0.30  85.0  1.00  1.00 IB001                                          
 Soil layer distribution method: 2                                             
      DS DLAYR    LL   DUL   SAT  Root    BD    OC  CLAY  SILT  SAND           
 LYR  cm    cm  frac  frac  frac  Grow g/cm3     %     %     %     %    pH     
   1   5     5 0.228 0.385 0.481 1.000  1.30  1.75  50.0  45.0   5.0   6.5     
   2  15    10 0.228 0.385 0.481 1.000  1.30  1.75  50.0  45.0   5.0   6.5     
   3  30    15 0.249 0.406 0.482 0.638  1.30  1.60  50.0  45.0   5.0   6.5     
   4  45    15 0.249 0.406 0.465 0.472  1.35  1.45  50.0  45.0   5.0   6.5     
   5  60    15 0.249 0.406 0.465 0.350  1.35  1.45  50.0  45.0   5.0   6.5     
   6  90    30 0.308 0.456 0.468 0.223  1.35  1.10  50.0  45.0   5.0   6.5     
   7 120    30 0.207 0.341 0.452 0.122  1.40  0.65  50.0  45.0   5.0   6.5     
   8 150    30 0.243 0.365 0.455 0.067  1.40  0.30  50.0  45.0   5.0   6.5     
   9 180    30 0.259 0.361 0.457 0.037  1.40  0.10  50.0  45.0   5.0   6.5     
  10 210    30 0.259 0.361 0.457 0.020  1.40  0.01  50.0  45.0   5.0   6.5     

 SOILDYN  YEAR DOY = 1994 297
 Additional soil properties                                                    
                Convert                                                        
    Cation Adsrp  ppm /  SLCF  TOTN  OrgN                                      
   L  Exch  Coef  kg/ha     %     % kg/ha                                      
   1  15.5   0.0   1.54   0.0  0.17  1105                                      
   2  15.5   0.0   0.77   0.0  0.17  2210                                      
   3  15.5   0.0   0.51   0.0  0.17  3315                                      
   4  15.5   0.0   0.49   0.0  0.14  2835                                      
   5  15.5   0.0   0.49   0.0  0.14  2835                                      
   6  15.5   0.0   0.25   0.0  0.11  4455                                      
   7  15.5   0.0   0.24   0.0  0.06  2520                                      
   8  15.5   0.0   0.24   0.0  0.03  1260                                      
   9  15.5   0.0   0.24   0.0  0.01   420                                      
  10  15.5   0.0   0.24   0.0  0.00   -99                                      

 IPWTH   YEAR DOY = 1994 297
 C:\DSSAT48\Weather\SEDE9401.WTH                                               
 Found daily weather data headers for:                                         
   SRAD           Col   7 -  11                                                
   TMAX           Col  13 -  17                                                
   TMIN           Col  19 -  23                                                
   RAIN           Col  25 -  29                                                
   DEWP           Col  31 -  35                                                
   WIND           Col  37 -  41                                                
   PAR            Col  43 -  47                                                
   RHUM           Col  55 -  59                                                

 TILEVENT  YEAR DOY = 1994 297
              -- Lyr Thick (cm)--  --Blk dens (g/cm3)- ---- SOM-BD --------    
                DL1    DL2    DL3    BD1    BD2    BD3   BDS1   BDS2   BDS3    
 Before till  5.000 10.000 15.000  1.300  1.300  1.300  1.300  1.300  1.300    
 After till   5.556 11.111 15.317  1.170  1.170  1.273                         

 TILEVENT  YEAR DOY = 1994 298
              -- Lyr Thick (cm)--  --Blk dens (g/cm3)- ---- SOM-BD --------    
                DL1    DL2    DL3    BD1    BD2    BD3   BDS1   BDS2   BDS3    
 Before till  5.556 11.111 15.317  1.170  1.170  1.273  1.300  1.300  1.291    
 After till   5.222 10.000 16.756  1.170  1.170  1.273                         

 ENDRUN  YEAR DOY = 1995 216
 Normal end of run        3                                                    

******************************************************************************

*DSSAT Cropping System Model Ver. 4.8.0.027 -release  JAN 10, 2024 00:27:28

*RUN   4        : 1 | 4                     WHAPS048 SEDE9501    4
 MODEL          : WHAPS048 - Wheat
 EXPERIMENT     : SEDE9501 WH en, Duengungs-Kombinationsversuch Seehausen (F1-70
 DATA PATH      :
 TREATMENT  4   : 1 | 4                     WHAPS048
  

 CSM     YEAR DOY = 1994 297
 RNMODE = B                                                                    
 PATHEX =                                                                      
 FILEX  = SEDE9501.WHX                                                         
 FILEB  = DSSBatch.V48                                                         
 FILEIO = DSSAT48.INP                                                          
 MODEL  = WHAPS048                                                             
 TRTNUM =     4                                                                

 SOILDYN  YEAR DOY = 1994 297
 The soil file has missing or invalid data.                                    
 Default values have been used for these variables:                            
   CEC, ADCOEF                                                                 
 These defaults may or may not be important to your results.                   

 RETC  YEAR DOY = 1994 297
 Soil RETC parameters:                                                         
  LYR DS  SWCN   WCR    Hb Lambd  Alpha     m     n Texture                    
   1   5-99.00 0.051   7.2 0.166  0.007 0.163 1.195 SiltyClay                  
   2  15-99.00 0.051   7.2 0.166  0.007 0.163 1.195 SiltyClay                  
   3  30-99.00 0.056   9.4 0.156  0.006 0.155 1.183 SiltyClay                  
   4  45-99.00 0.056  12.2 0.156  0.004 0.156 1.185 SiltyClay                  
   5  60-99.00 0.056  12.2 0.156  0.004 0.156 1.185 SiltyClay                  
   6  90-99.00 0.069  25.9 0.126  0.002 0.145 1.170 SiltyClay                  
   7 120-99.00 0.046   4.4 0.159  0.011 0.159 1.189 SiltyClay                  
   8 150-99.00 0.054   4.7 0.131  0.011 0.133 1.154 SiltyClay                  
   9 180-99.00 0.058   2.6 0.108  0.017 0.114 1.129 SiltyClay                  
  10 210-99.00 0.058   2.6 0.108  0.017 0.114 1.129 SiltyClay                  

 SOILDYN  YEAR DOY = 1994 297
 Soil ID: IB00000001                                                           
 DEFAULT - DEEP SILTY CLAY                                                     
 GENERIC                                                                       
   SALB SWCON    CN  DMOD  SLPF SMPX                                           
   0.11  0.30  85.0  1.00  1.00 IB001                                          
 Soil layer distribution method: 2                                             
      DS DLAYR    LL   DUL   SAT  Root    BD    OC  CLAY  SILT  SAND           
 LYR  cm    cm  frac  frac  frac  Grow g/cm3     %     %     %     %    pH     
   1   5     5 0.228 0.385 0.481 1.000  1.30  1.75  50.0  45.0   5.0   6.5     
   2  15    10 0.228 0.385 0.481 1.000  1.30  1.75  50.0  45.0   5.0   6.5     
   3  30    15 0.249 0.406 0.482 0.638  1.30  1.60  50.0  45.0   5.0   6.5     
   4  45    15 0.249 0.406 0.465 0.472  1.35  1.45  50.0  45.0   5.0   6.5     
   5  60    15 0.249 0.406 0.465 0.350  1.35  1.45  50.0  45.0   5.0   6.5     
   6  90    30 0.308 0.456 0.468 0.223  1.35  1.10  50.0  45.0   5.0   6.5     
   7 120    30 0.207 0.341 0.452 0.122  1.40  0.65  50.0  45.0   5.0   6.5     
   8 150    30 0.243 0.365 0.455 0.067  1.40  0.30  50.0  45.0   5.0   6.5     
   9 180    30 0.259 0.361 0.457 0.037  1.40  0.10  50.0  45.0   5.0   6.5     
  10 210    30 0.259 0.361 0.457 0.020  1.40  0.01  50.0  45.0   5.0   6.5     

 SOILDYN  YEAR DOY = 1994 297
 Additional soil properties                                                    
                Convert                                                        
    Cation Adsrp  ppm /  SLCF  TOTN  OrgN                                      
   L  Exch  Coef  kg/ha     %     % kg/ha                                      
   1  15.5   0.0   1.54   0.0  0.17  1105                                      
   2  15.5   0.0   0.77   0.0  0.17  2210                                      
   3  15.5   0.0   0.51   0.0  0.17  3315                                      
   4  15.5   0.0   0.49   0.0  0.14  2835                                      
   5  15.5   0.0   0.49   0.0  0.14  2835                                      
   6  15.5   0.0   0.25   0.0  0.11  4455                                      
   7  15.5   0.0   0.24   0.0  0.06  2520                                      
   8  15.5   0.0   0.24   0.0  0.03  1260                                      
   9  15.5   0.0   0.24   0.0  0.01   420                                      
  10  15.5   0.0   0.24   0.0  0.00   -99                                      

 IPWTH   YEAR DOY = 1994 297
 C:\DSSAT48\Weather\SEDE9401.WTH                                               
 Found daily weather data headers for:                                         
   SRAD           Col   7 -  11                                                
   TMAX           Col  13 -  17                                                
   TMIN           Col  19 -  23                                                
   RAIN           Col  25 -  29                                                
   DEWP           Col  31 -  35                                                
   WIND           Col  37 -  41                                                
   PAR            Col  43 -  47                                                
   RHUM           Col  55 -  59                                                

 TILEVENT  YEAR DOY = 1994 297
              -- Lyr Thick (cm)--  --Blk dens (g/cm3)- ---- SOM-BD --------    
                DL1    DL2    DL3    BD1    BD2    BD3   BDS1   BDS2   BDS3    
 Before till  5.000 10.000 15.000  1.300  1.300  1.300  1.300  1.300  1.300    
 After till   5.556 11.111 15.317  1.170  1.170  1.273                         

 TILEVENT  YEAR DOY = 1994 298
              -- Lyr Thick (cm)--  --Blk dens (g/cm3)- ---- SOM-BD --------    
                DL1    DL2    DL3    BD1    BD2    BD3   BDS1   BDS2   BDS3    
 Before till  5.556 11.111 15.317  1.170  1.170  1.273  1.300  1.300  1.291    
 After till   5.222 10.000 16.756  1.170  1.170  1.273                         

 ENDRUN  YEAR DOY = 1995 216
 Normal end of run        4                                                    
