*SIMULATION OVERVIEW FILE

*DSSAT Cropping System Model Ver. 4.8.0.027 -release  JAN 10, 2024 00:27:28

*RUN   1        : 1 | 1                     WHAPS048 SEDE9501    1
 MODEL          : WHAPS048 - Wheat
 EXPERIMENT     : SEDE9501 WH en, Duengungs-Kombinationsversuch Seehausen (F1-70
 DATA PATH      :
 TREATMENT  1   : 1 | 1                     WHAPS048


 CROP           : Wheat            CULTIVAR : Borenos          ECOTYPE :IB0001
 STARTING DATE  : OCT 24 1994
 PLANTING DATE  : OCT 26 1994      PLANTS/m2 :   500.0    ROW SPACING :  12.cm
 HARVEST DATE   : AUG  4 1995
 WEATHER        : SEDE   1994
 SOIL           : IB00000001     TEXTURE : SIC   - DEFAULT - DEEP SILTY CLAY
 SOIL INITIAL C : DEPTH:210cm EXTR. H2O:276.6mm  NO3:  0.3kg/ha  NH4:  0.3kg/ha
 WATER BALANCE  : RAINFED
 IRRIGATION     : NOT IRRIGATED
 NITROGEN BAL.  : SOIL-N & N-UPTAKE SIMULATION; NO N-FIXATION
 N-FERTILIZER   :        0 kg/ha IN     0 APPLICATIONS
 RESIDUE/MANURE : INITIAL :     0 kg/ha ;       0 kg/ha IN     0 APPLICATIONS
 ENVIRONM. OPT. : DAYL=    0.00  SRAD=    0.00  TMAX=    0.00  TMIN=    0.00
                  RAIN=    0.00  CO2 =    0.00  DEW =    0.00  WIND=    0.00
 SIMULATION OPT : WATER   :Y  NITROGEN:Y  N-FIX:N  PHOSPH :N  PESTS  :N
                  PHOTO   :C  ET      :R  INFIL:S  HYDROL :R  SOM    :G
                  CO2 359ppm  NSWIT   :1  EVAP :R  SOIL   :2  STEMP  :D
 MANAGEMENT OPT : PLANTING:R  IRRIG   :N  FERT :R  RESIDUE:N  HARVEST:R
                  WEATHER :M  TILLAGE :Y

*SUMMARY OF SOIL AND GENETIC INPUT PARAMETERS

   SOIL LOWER UPPER   SAT  EXTR  INIT   ROOT   BULK     pH    NO3    NH4    ORG
  DEPTH LIMIT LIMIT    SW    SW    SW   DIST   DENS                          C
   cm   cm3/cm3    cm3/cm3    cm3/cm3         g/cm3         ugN/g  ugN/g     %
-------------------------------------------------------------------------------
  0-  5 0.228 0.385 0.481 0.157 0.385   1.00   1.30   6.50   0.01   0.01   1.75
  5- 15 0.228 0.385 0.481 0.157 0.385   1.00   1.30   6.50   0.01   0.01   1.75
 15- 30 0.249 0.406 0.482 0.157 0.406   0.64   1.30   6.50   0.01   0.01   1.60
 30- 45 0.249 0.406 0.465 0.157 0.406   0.47   1.35   6.50   0.01   0.01   1.45
 45- 60 0.249 0.406 0.465 0.157 0.406   0.35   1.35   6.50   0.01   0.01   1.45
 60- 90 0.308 0.456 0.468 0.148 0.456   0.22   1.35   6.50   0.01   0.01   1.10
 90-120 0.207 0.341 0.452 0.134 0.341   0.12   1.40   6.50   0.01   0.01   0.65
120-150 0.243 0.365 0.455 0.122 0.365   0.07   1.40   6.50   0.01   0.01   0.30
150-180 0.259 0.361 0.457 0.102 0.361   0.04   1.40   6.50   0.01   0.01   0.10
180-210 0.259 0.361 0.457 0.102 0.361   0.02   1.40   6.50   0.01   0.01   0.01

TOT-210  52.9  80.6  97.1  27.7  80.6  <--cm   -  kg/ha-->    0.3    0.3 213120
SOIL ALBEDO    : 0.11      EVAPORATION LIMIT : 6.00         MIN. FACTOR  : 1.00
RUNOFF CURVE # :85.00      DRAINAGE RATE     : 0.30         FERT. FACTOR : 1.00

 Wheat            CULTIVAR: IB9999-Borenos            ECOTYPE: IB0001


*SIMULATED CROP AND SOIL STATUS AT MAIN DEVELOPMENT STAGES

 RUN NO.     1     1 | 1                   

        CROP GROWTH     BIOMASS         LEAF   CROP N     STRESS      STRESS                                           
   DATE  AGE STAGE        kg/ha    LAI   NUM  kg/ha  %   H2O  Nitr Phos1 Phos2  RSTG                                   
 ------  --- ----------   -----  -----  ----  ---  ---  ----  ----  ----  ----  ----                                   
 24 OCT    0 Fallow           0   0.00   0.0    0  0.0  0.00  0.00  0.00  0.00     7
 26 OCT    0 Sowing           0   0.00   0.0    0  0.0  0.00  0.00  0.00  0.00     8
 28 OCT    2 Germinate        0   0.00   0.0    0  0.0  0.00  0.00  0.00  0.00     9
  6 NOV   11 Emergence       18   0.02   0.0    1  6.8  0.00  0.00  0.00  0.00     1
 22 APR  178 End Juveni     203   0.19   0.0    5  2.3  0.31  0.00  0.00  0.00     2
 22 MAY  208 End Veg        513   0.37   0.0    9  1.8  0.95  0.00  0.00  0.00     3
  6 JUN  223 End Ear Gr     940   0.33   0.0   15  1.5  0.91  0.00  0.00  0.00     4
 20 JUN  237 Beg Gr Fil    1478   0.28   0.0   18  1.2  0.93  0.00  0.00  0.00     5
 14 JUL  261 Maturity      2002   0.00   0.0   21  1.0  0.88  0.04  0.00  0.00     6
 15 JUL  262 Maturity      2002   0.00   0.0   21  1.0  0.00  1.00  0.00  0.00     7
  4 AUG  282 Harvest       2002   0.00   0.0   21  1.0  0.00  1.00  0.00  0.00     7


*MAIN GROWTH AND DEVELOPMENT VARIABLES

@     VARIABLE                                         SIMULATED     MEASURED
      --------                                         ---------     --------
      Anthesis day (dap)                                     223          272
      Physiological maturity day (dap)                       262          319
      Yield at harvest maturity (kg [dm]/ha)                 965         5341
      Number at maturity (no/m2)                            2807          -99
      Unit wt at maturity (g [dm]/unit)                     34.4          -99
      Number at maturity (no/unit)                           5.6          -99
      Tops weight at maturity (kg [dm]/ha)                  2002          -99
      By-product produced (stalk) at maturity (kg[dm]/ha       0          -99
      Leaf area index, maximum                              0.38          -99
      Harvest index at maturity                            0.482          -99
      Grain N at maturity (kg/ha)                             17          -99
      Tops N at maturity (kg/ha)                              21          -99
      Stem N at maturity (kg/ha)                               0          -99
      Grain N at maturity (%)                                1.8          -99
      Tops weight at anthesis (kg [dm]/ha)                     2          -99
      Tops N at anthesis (kg/ha)                              44          -99
      Leaf number per stem at maturity                      0.00          -99
      Emergence day (dap)                                     11          -99


*ENVIRONMENTAL AND STRESS FACTORS

 |-----Development Phase------|--------------------------------------Environment--------------------------------------|-----------------Stress-----------------|
                              |---------------Average--------------|-----Cumulative-----|--------Count of days--------|          (0=Min, 1=Max Stress)         |
                         Time  Temp  Temp  Temp Solar Photop                Evapo    Pot TMIN TMIN TMAX TMAX TMAX RAIN|----Water----|---Nitrogen--|-Phosphorus-|
                         Span   Max   Min  Mean   Rad  [day]    CO2   Rain  Trans     ET   <    <    >    >    >    >   Photo         Photo         Photo
                         days    øC    øC    øC MJ/m2     hr    ppm     mm     mm     mm  0øC  2øC 30øC 32øC 34øC  0mm  synth Growth  synth Growth  synth Growth
----------------------------------------------------------------------------------------------------------------------------------------------------------------
 Emergence-End Juvenile   167   7.1   1.3   4.2   5.1   9.66  359.8  297.1  113.4  135.8   58   96    0    0    0  107  0.257  0.307  0.001  0.003  0.000  0.000
 End Juvenil-Floral Init   30  15.8   6.4  11.1  17.0  14.88  360.4   52.7   51.5  103.6    0    1    0    0    0   10  0.921  0.948  0.000  0.000  0.000  0.000
 Floral Init-End Lf Grow   15  19.2   9.1  14.2  17.0  15.95  360.5   43.8   27.1   55.6    0    0    0    0    0    5  0.863  0.909  0.000  0.000  0.000  0.000
 End Lf Grth-Beg Grn Fil   14  17.0  10.2  13.6  16.7  16.32  360.6   26.1   32.0   49.5    0    0    0    0    0   11  0.897  0.932  0.000  0.000  0.000  0.000
 Grain Filling Phase       24  24.5  13.5  19.0  22.4  16.28  360.7   21.6   39.2  131.4    0    0    4    1    0    6  0.886  0.924  0.000  0.000  0.000  0.000
   
 Planting to Harvest      282  12.3   4.9   8.6  10.1  11.87  360.1  492.9  308.4  587.8   58   97    8    2    0  150  0.416  0.456  0.060  0.076  0.000  0.000
----------------------------------------------------------------------------------------------------------------------------------------------------------------


*Resource Productivity
 Growing season length: 282 days 

 Precipitation during growing season       492.9 mm[rain]
   Dry Matter Productivity                  0.41 kg[DM]/m3[rain]          =    4.1 kg[DM]/ha per mm[rain]
   Yield Productivity                       0.20 kg[grain yield]/m3[rain] =    2.0 kg[yield]/ha per mm[rain]

 Evapotranspiration during growing season  308.4 mm[ET]
   Dry Matter Productivity                  0.65 kg[DM]/m3[ET]            =    6.5 kg[DM]/ha per mm[ET]
   Yield Productivity                       0.31 kg[grain yield]/m3[ET]   =    3.1 kg[yield]/ha per mm[ET]

 Transpiration during growing season        26.6 mm[EP]
   Dry Matter Productivity                  7.54 kg[DM]/m3[EP]            =   75.4 kg[DM]/ha per mm[EP]
   Yield Productivity                       3.63 kg[grain yield]/m3[EP]   =   36.3 kg[yield]/ha per mm[EP]

 N uptake during growing season               25 kg[N uptake]/ha
   Dry Matter Productivity                  80.1 kg[DM]/kg[N uptake]
   Yield Productivity                       38.6 kg[yield]/kg[N uptake]

--------------------------------------------------------------------------------------------------------------

                     Wheat YIELD :      965 kg/ha    [Dry weight] 

**************************************************************************************************************

*DSSAT Cropping System Model Ver. 4.8.0.027 -release  JAN 10, 2024 00:27:28

*RUN   2        : 1 | 2                     WHAPS048 SEDE9501    2
 MODEL          : WHAPS048 - Wheat
 EXPERIMENT     : SEDE9501 WH en, Duengungs-Kombinationsversuch Seehausen (F1-70
 DATA PATH      :
 TREATMENT  2   : 1 | 2                     WHAPS048


 CROP           : Wheat            CULTIVAR : Borenos          ECOTYPE :IB0001
 STARTING DATE  : OCT 24 1994
 PLANTING DATE  : OCT 26 1994      PLANTS/m2 :   500.0    ROW SPACING :  12.cm
 HARVEST DATE   : AUG  4 1995
 WEATHER        : SEDE   1994
 SOIL           : IB00000001     TEXTURE : SIC   - DEFAULT - DEEP SILTY CLAY
 SOIL INITIAL C : DEPTH:210cm EXTR. H2O:276.6mm  NO3:  0.3kg/ha  NH4:  0.3kg/ha
 WATER BALANCE  : RAINFED
 IRRIGATION     : NOT IRRIGATED
 NITROGEN BAL.  : SOIL-N & N-UPTAKE SIMULATION; NO N-FIXATION
 N-FERTILIZER   :       40 kg/ha IN     1 APPLICATIONS
 RESIDUE/MANURE : INITIAL :     0 kg/ha ;       0 kg/ha IN     0 APPLICATIONS
 ENVIRONM. OPT. : DAYL=    0.00  SRAD=    0.00  TMAX=    0.00  TMIN=    0.00
                  RAIN=    0.00  CO2 =    0.00  DEW =    0.00  WIND=    0.00
 SIMULATION OPT : WATER   :Y  NITROGEN:Y  N-FIX:N  PHOSPH :N  PESTS  :N
                  PHOTO   :C  ET      :R  INFIL:S  HYDROL :R  SOM    :G
                  CO2 359ppm  NSWIT   :1  EVAP :R  SOIL   :2  STEMP  :D
 MANAGEMENT OPT : PLANTING:R  IRRIG   :N  FERT :R  RESIDUE:N  HARVEST:R
                  WEATHER :M  TILLAGE :Y

*SUMMARY OF SOIL AND GENETIC INPUT PARAMETERS

   SOIL LOWER UPPER   SAT  EXTR  INIT   ROOT   BULK     pH    NO3    NH4    ORG
  DEPTH LIMIT LIMIT    SW    SW    SW   DIST   DENS                          C
   cm   cm3/cm3    cm3/cm3    cm3/cm3         g/cm3         ugN/g  ugN/g     %
-------------------------------------------------------------------------------
  0-  5 0.228 0.385 0.481 0.157 0.385   1.00   1.30   6.50   0.01   0.01   1.75
  5- 15 0.228 0.385 0.481 0.157 0.385   1.00   1.30   6.50   0.01   0.01   1.75
 15- 30 0.249 0.406 0.482 0.157 0.406   0.64   1.30   6.50   0.01   0.01   1.60
 30- 45 0.249 0.406 0.465 0.157 0.406   0.47   1.35   6.50   0.01   0.01   1.45
 45- 60 0.249 0.406 0.465 0.157 0.406   0.35   1.35   6.50   0.01   0.01   1.45
 60- 90 0.308 0.456 0.468 0.148 0.456   0.22   1.35   6.50   0.01   0.01   1.10
 90-120 0.207 0.341 0.452 0.134 0.341   0.12   1.40   6.50   0.01   0.01   0.65
120-150 0.243 0.365 0.455 0.122 0.365   0.07   1.40   6.50   0.01   0.01   0.30
150-180 0.259 0.361 0.457 0.102 0.361   0.04   1.40   6.50   0.01   0.01   0.10
180-210 0.259 0.361 0.457 0.102 0.361   0.02   1.40   6.50   0.01   0.01   0.01

TOT-210  52.9  80.6  97.1  27.7  80.6  <--cm   -  kg/ha-->    0.3    0.3 213120
SOIL ALBEDO    : 0.11      EVAPORATION LIMIT : 6.00         MIN. FACTOR  : 1.00
RUNOFF CURVE # :85.00      DRAINAGE RATE     : 0.30         FERT. FACTOR : 1.00

 Wheat            CULTIVAR: IB9999-Borenos            ECOTYPE: IB0001


*SIMULATED CROP AND SOIL STATUS AT MAIN DEVELOPMENT STAGES

 RUN NO.     2     1 | 2                   

        CROP GROWTH     BIOMASS         LEAF   CROP N     STRESS      STRESS                                           
   DATE  AGE STAGE        kg/ha    LAI   NUM  kg/ha  %   H2O  Nitr Phos1 Phos2  RSTG                                   
 ------  --- ----------   -----  -----  ----  ---  ---  ----  ----  ----  ----  ----                                   
 24 OCT    0 Fallow           0   0.00   0.0    0  0.0  0.00  0.00  0.00  0.00     7
 26 OCT    0 Sowing           0   0.00   0.0    0  0.0  0.00  0.00  0.00  0.00     8
 28 OCT    2 Germinate        0   0.00   0.0    0  0.0  0.00  0.00  0.00  0.00     9
  6 NOV   11 Emergence       18   0.02   0.0    1  6.8  0.00  0.00  0.00  0.00     1
 22 APR  178 End Juveni    1304   1.83   0.0   37  2.8  0.32  0.00  0.00  0.00     2
 22 MAY  208 End Veg       2863   2.95   0.0   50  1.8  0.90  0.00  0.00  0.00     3
  6 JUN  223 End Ear Gr    4156   2.55   0.0   56  1.3  0.85  0.00  0.00  0.00     4
 20 JUN  237 Beg Gr Fil    6389   2.10   0.0   61  0.9  0.90  0.00  0.00  0.00     5
 14 JUL  261 Maturity      8495   0.00   0.0   65  0.8  0.90  0.04  0.00  0.00     6
 15 JUL  262 Maturity      8495   0.00   0.0   65  0.8  0.49  1.00  0.00  0.00     7
  4 AUG  282 Harvest       8495   0.00   0.0   65  0.8  0.49  1.00  0.00  0.00     7


*MAIN GROWTH AND DEVELOPMENT VARIABLES

@     VARIABLE                                         SIMULATED     MEASURED
      --------                                         ---------     --------
      Anthesis day (dap)                                     223          276
      Physiological maturity day (dap)                       262          325
      Yield at harvest maturity (kg [dm]/ha)                3345         6080
      Number at maturity (no/m2)                           10393          -99
      Unit wt at maturity (g [dm]/unit)                     32.2          -99
      Number at maturity (no/unit)                          20.8          -99
      Tops weight at maturity (kg [dm]/ha)                  8495          -99
      By-product produced (stalk) at maturity (kg[dm]/ha       0          -99
      Leaf area index, maximum                              2.98          -99
      Harvest index at maturity                            0.394          -99
      Grain N at maturity (kg/ha)                             49          -99
      Tops N at maturity (kg/ha)                              65          -99
      Stem N at maturity (kg/ha)                               0          -99
      Grain N at maturity (%)                                1.5          -99
      Tops weight at anthesis (kg [dm]/ha)                     2          -99
      Tops N at anthesis (kg/ha)                              44          -99
      Leaf number per stem at maturity                      0.00          -99
      Emergence day (dap)                                     11          -99


*ENVIRONMENTAL AND STRESS FACTORS

 |-----Development Phase------|--------------------------------------Environment--------------------------------------|-----------------Stress-----------------|
                              |---------------Average--------------|-----Cumulative-----|--------Count of days--------|          (0=Min, 1=Max Stress)         |
                         Time  Temp  Temp  Temp Solar Photop                Evapo    Pot TMIN TMIN TMAX TMAX TMAX RAIN|----Water----|---Nitrogen--|-Phosphorus-|
                         Span   Max   Min  Mean   Rad  [day]    CO2   Rain  Trans     ET   <    <    >    >    >    >   Photo         Photo         Photo
                         days    øC    øC    øC MJ/m2     hr    ppm     mm     mm     mm  0øC  2øC 30øC 32øC 34øC  0mm  synth Growth  synth Growth  synth Growth
----------------------------------------------------------------------------------------------------------------------------------------------------------------
 Emergence-End Juvenile   167   7.1   1.3   4.2   5.1   9.66  359.8  297.1  105.6  132.9   58   96    0    0    0  107  0.272  0.319  0.001  0.003  0.000  0.000
 End Juvenil-Floral Init   30  15.8   6.4  11.1  17.0  14.88  360.4   52.7   37.0   92.9    0    1    0    0    0   10  0.858  0.903  0.000  0.000  0.000  0.000
 Floral Init-End Lf Grow   15  19.2   9.1  14.2  17.0  15.95  360.5   43.8   25.3   50.1    0    0    0    0    0    5  0.778  0.852  0.000  0.000  0.000  0.000
 End Lf Grth-Beg Grn Fil   14  17.0  10.2  13.6  16.7  16.32  360.6   26.1   28.1   44.7    0    0    0    0    0   11  0.847  0.898  0.000  0.000  0.000  0.000
 Grain Filling Phase       24  24.5  13.5  19.0  22.4  16.28  360.7   21.6   74.2  120.8    0    0    4    1    0    6  0.871  0.914  0.000  0.000  0.000  0.000
   
 Planting to Harvest      282  12.3   4.9   8.6  10.1  11.87  360.1  492.9  317.1  552.8   58   97    8    2    0  150  0.411  0.489  0.060  0.076  0.000  0.000
----------------------------------------------------------------------------------------------------------------------------------------------------------------


*Resource Productivity
 Growing season length: 282 days 

 Precipitation during growing season       492.9 mm[rain]
   Dry Matter Productivity                  1.72 kg[DM]/m3[rain]          =   17.2 kg[DM]/ha per mm[rain]
   Yield Productivity                       0.68 kg[grain yield]/m3[rain] =    6.8 kg[yield]/ha per mm[rain]

 Evapotranspiration during growing season  317.1 mm[ET]
   Dry Matter Productivity                  2.68 kg[DM]/m3[ET]            =   26.8 kg[DM]/ha per mm[ET]
   Yield Productivity                       1.05 kg[grain yield]/m3[ET]   =   10.5 kg[yield]/ha per mm[ET]

 Transpiration during growing season       113.1 mm[EP]
   Dry Matter Productivity                  7.51 kg[DM]/m3[EP]            =   75.1 kg[DM]/ha per mm[EP]
   Yield Productivity                       2.96 kg[grain yield]/m3[EP]   =   29.6 kg[yield]/ha per mm[EP]

 N applied during growing season             40. kg[N applied]/ha
   Dry Matter Productivity                 212.4 kg[DM]/kg[N applied]
   Yield Productivity                       83.6 kg[yield]/kg[N applied]

 N uptake during growing season               90 kg[N uptake]/ha
   Dry Matter Productivity                  94.4 kg[DM]/kg[N uptake]
   Yield Productivity                       37.2 kg[yield]/kg[N uptake]

--------------------------------------------------------------------------------------------------------------

                     Wheat YIELD :     3345 kg/ha    [Dry weight] 

**************************************************************************************************************

*DSSAT Cropping System Model Ver. 4.8.0.027 -release  JAN 10, 2024 00:27:28

*RUN   3        : 1 | 3                     WHAPS048 SEDE9501    3
 MODEL          : WHAPS048 - Wheat
 EXPERIMENT     : SEDE9501 WH en, Duengungs-Kombinationsversuch Seehausen (F1-70
 DATA PATH      :
 TREATMENT  3   : 1 | 3                     WHAPS048


 CROP           : Wheat            CULTIVAR : Borenos          ECOTYPE :IB0001
 STARTING DATE  : OCT 24 1994
 PLANTING DATE  : OCT 26 1994      PLANTS/m2 :   500.0    ROW SPACING :  12.cm
 HARVEST DATE   : AUG  4 1995
 WEATHER        : SEDE   1994
 SOIL           : IB00000001     TEXTURE : SIC   - DEFAULT - DEEP SILTY CLAY
 SOIL INITIAL C : DEPTH:210cm EXTR. H2O:276.6mm  NO3:  0.3kg/ha  NH4:  0.3kg/ha
 WATER BALANCE  : RAINFED
 IRRIGATION     : NOT IRRIGATED
 NITROGEN BAL.  : SOIL-N & N-UPTAKE SIMULATION; NO N-FIXATION
 N-FERTILIZER   :       80 kg/ha IN     2 APPLICATIONS
 RESIDUE/MANURE : INITIAL :     0 kg/ha ;       0 kg/ha IN     0 APPLICATIONS
 ENVIRONM. OPT. : DAYL=    0.00  SRAD=    0.00  TMAX=    0.00  TMIN=    0.00
                  RAIN=    0.00  CO2 =    0.00  DEW =    0.00  WIND=    0.00
 SIMULATION OPT : WATER   :Y  NITROGEN:Y  N-FIX:N  PHOSPH :N  PESTS  :N
                  PHOTO   :C  ET      :R  INFIL:S  HYDROL :R  SOM    :G
                  CO2 359ppm  NSWIT   :1  EVAP :R  SOIL   :2  STEMP  :D
 MANAGEMENT OPT : PLANTING:R  IRRIG   :N  FERT :R  RESIDUE:N  HARVEST:R
                  WEATHER :M  TILLAGE :Y

*SUMMARY OF SOIL AND GENETIC INPUT PARAMETERS

   SOIL LOWER UPPER   SAT  EXTR  INIT   ROOT   BULK     pH    NO3    NH4    ORG
  DEPTH LIMIT LIMIT    SW    SW    SW   DIST   DENS                          C
   cm   cm3/cm3    cm3/cm3    cm3/cm3         g/cm3         ugN/g  ugN/g     %
-------------------------------------------------------------------------------
  0-  5 0.228 0.385 0.481 0.157 0.385   1.00   1.30   6.50   0.01   0.01   1.75
  5- 15 0.228 0.385 0.481 0.157 0.385   1.00   1.30   6.50   0.01   0.01   1.75
 15- 30 0.249 0.406 0.482 0.157 0.406   0.64   1.30   6.50   0.01   0.01   1.60
 30- 45 0.249 0.406 0.465 0.157 0.406   0.47   1.35   6.50   0.01   0.01   1.45
 45- 60 0.249 0.406 0.465 0.157 0.406   0.35   1.35   6.50   0.01   0.01   1.45
 60- 90 0.308 0.456 0.468 0.148 0.456   0.22   1.35   6.50   0.01   0.01   1.10
 90-120 0.207 0.341 0.452 0.134 0.341   0.12   1.40   6.50   0.01   0.01   0.65
120-150 0.243 0.365 0.455 0.122 0.365   0.07   1.40   6.50   0.01   0.01   0.30
150-180 0.259 0.361 0.457 0.102 0.361   0.04   1.40   6.50   0.01   0.01   0.10
180-210 0.259 0.361 0.457 0.102 0.361   0.02   1.40   6.50   0.01   0.01   0.01

TOT-210  52.9  80.6  97.1  27.7  80.6  <--cm   -  kg/ha-->    0.3    0.3 213120
SOIL ALBEDO    : 0.11      EVAPORATION LIMIT : 6.00         MIN. FACTOR  : 1.00
RUNOFF CURVE # :85.00      DRAINAGE RATE     : 0.30         FERT. FACTOR : 1.00

 Wheat            CULTIVAR: IB9999-Borenos            ECOTYPE: IB0001


*SIMULATED CROP AND SOIL STATUS AT MAIN DEVELOPMENT STAGES

 RUN NO.     3     1 | 3                   

        CROP GROWTH     BIOMASS         LEAF   CROP N     STRESS      STRESS                                           
   DATE  AGE STAGE        kg/ha    LAI   NUM  kg/ha  %   H2O  Nitr Phos1 Phos2  RSTG                                   
 ------  --- ----------   -----  -----  ----  ---  ---  ----  ----  ----  ----  ----                                   
 24 OCT    0 Fallow           0   0.00   0.0    0  0.0  0.00  0.00  0.00  0.00     7
 26 OCT    0 Sowing           0   0.00   0.0    0  0.0  0.00  0.00  0.00  0.00     8
 28 OCT    2 Germinate        0   0.00   0.0    0  0.0  0.00  0.00  0.00  0.00     9
  6 NOV   11 Emergence       18   0.02   0.0    1  6.8  0.00  0.00  0.00  0.00     1
 22 APR  178 End Juveni    1304   1.83   0.0   37  2.8  0.32  0.00  0.00  0.00     2
 22 MAY  208 End Veg       4001   3.68   0.0   81  2.0  0.90  0.00  0.00  0.00     3
  6 JUN  223 End Ear Gr    6169   3.24   0.0   88  1.4  0.81  0.00  0.00  0.00     4
 20 JUN  237 Beg Gr Fil    8759   2.75   0.0   93  1.1  0.88  0.00  0.00  0.00     5
 14 JUL  261 Maturity     11700   0.00   0.0   98  0.8  0.91  0.04  0.00  0.00     6
 15 JUL  262 Maturity     11700   0.00   0.0   98  0.8  0.86  1.00  0.00  0.00     7
  4 AUG  282 Harvest      11700   0.00   0.0   98  0.8  0.86  1.00  0.00  0.00     7


*MAIN GROWTH AND DEVELOPMENT VARIABLES

@     VARIABLE                                         SIMULATED     MEASURED
      --------                                         ---------     --------
      Anthesis day (dap)                                     223          268
      Physiological maturity day (dap)                       262          322
      Yield at harvest maturity (kg [dm]/ha)                5150         7336
      Number at maturity (no/m2)                           15293          -99
      Unit wt at maturity (g [dm]/unit)                     33.7          -99
      Number at maturity (no/unit)                          30.6          -99
      Tops weight at maturity (kg [dm]/ha)                 11700          -99
      By-product produced (stalk) at maturity (kg[dm]/ha       0          -99
      Leaf area index, maximum                              3.71          -99
      Harvest index at maturity                            0.440          -99
      Grain N at maturity (kg/ha)                             77          -99
      Tops N at maturity (kg/ha)                              98          -99
      Stem N at maturity (kg/ha)                               0          -99
      Grain N at maturity (%)                                1.5          -99
      Tops weight at anthesis (kg [dm]/ha)                     2          -99
      Tops N at anthesis (kg/ha)                              44          -99
      Leaf number per stem at maturity                      0.00          -99
      Emergence day (dap)                                     11          -99


*ENVIRONMENTAL AND STRESS FACTORS

 |-----Development Phase------|--------------------------------------Environment--------------------------------------|-----------------Stress-----------------|
                              |---------------Average--------------|-----Cumulative-----|--------Count of days--------|          (0=Min, 1=Max Stress)         |
                         Time  Temp  Temp  Temp Solar Photop                Evapo    Pot TMIN TMIN TMAX TMAX TMAX RAIN|----Water----|---Nitrogen--|-Phosphorus-|
                         Span   Max   Min  Mean   Rad  [day]    CO2   Rain  Trans     ET   <    <    >    >    >    >   Photo         Photo         Photo
                         days    øC    øC    øC MJ/m2     hr    ppm     mm     mm     mm  0øC  2øC 30øC 32øC 34øC  0mm  synth Growth  synth Growth  synth Growth
----------------------------------------------------------------------------------------------------------------------------------------------------------------
 Emergence-End Juvenile   167   7.1   1.3   4.2   5.1   9.66  359.8  297.1  105.6  132.9   58   96    0    0    0  107  0.272  0.319  0.001  0.003  0.000  0.000
 End Juvenil-Floral Init   30  15.8   6.4  11.1  17.0  14.88  360.4   52.7   44.4   92.8    0    1    0    0    0   10  0.855  0.900  0.000  0.000  0.000  0.000
 Floral Init-End Lf Grow   15  19.2   9.1  14.2  17.0  15.95  360.5   43.8   38.3   49.6    0    0    0    0    0    5  0.722  0.810  0.000  0.000  0.000  0.000
 End Lf Grth-Beg Grn Fil   14  17.0  10.2  13.6  16.7  16.32  360.6   26.1   28.7   44.1    0    0    0    0    0   11  0.810  0.874  0.000  0.000  0.000  0.000
 Grain Filling Phase       24  24.5  13.5  19.0  22.4  16.28  360.7   21.6   86.4  119.1    0    0    4    1    0    6  0.863  0.909  0.000  0.000  0.000  0.000
   
 Planting to Harvest      282  12.3   4.9   8.6  10.1  11.87  360.1  492.9  350.6  549.8   58   97    8    2    0  150  0.407  0.513  0.060  0.076  0.000  0.000
----------------------------------------------------------------------------------------------------------------------------------------------------------------


*Resource Productivity
 Growing season length: 282 days 

 Precipitation during growing season       492.9 mm[rain]
   Dry Matter Productivity                  2.37 kg[DM]/m3[rain]          =   23.7 kg[DM]/ha per mm[rain]
   Yield Productivity                       1.04 kg[grain yield]/m3[rain] =   10.4 kg[yield]/ha per mm[rain]

 Evapotranspiration during growing season  350.6 mm[ET]
   Dry Matter Productivity                  3.34 kg[DM]/m3[ET]            =   33.4 kg[DM]/ha per mm[ET]
   Yield Productivity                       1.47 kg[grain yield]/m3[ET]   =   14.7 kg[yield]/ha per mm[ET]

 Transpiration during growing season       159.3 mm[EP]
   Dry Matter Productivity                  7.34 kg[DM]/m3[EP]            =   73.4 kg[DM]/ha per mm[EP]
   Yield Productivity                       3.23 kg[grain yield]/m3[EP]   =   32.3 kg[yield]/ha per mm[EP]

 N applied during growing season             80. kg[N applied]/ha
   Dry Matter Productivity                 146.3 kg[DM]/kg[N applied]
   Yield Productivity                       64.4 kg[yield]/kg[N applied]

 N uptake during growing season              130 kg[N uptake]/ha
   Dry Matter Productivity                  90.0 kg[DM]/kg[N uptake]
   Yield Productivity                       39.6 kg[yield]/kg[N uptake]

--------------------------------------------------------------------------------------------------------------

                     Wheat YIELD :     5150 kg/ha    [Dry weight] 

**************************************************************************************************************

*DSSAT Cropping System Model Ver. 4.8.0.027 -release  JAN 10, 2024 00:27:28

*RUN   4        : 1 | 4                     WHAPS048 SEDE9501    4
 MODEL          : WHAPS048 - Wheat
 EXPERIMENT     : SEDE9501 WH en, Duengungs-Kombinationsversuch Seehausen (F1-70
 DATA PATH      :
 TREATMENT  4   : 1 | 4                     WHAPS048


 CROP           : Wheat            CULTIVAR : Borenos          ECOTYPE :IB0001
 STARTING DATE  : OCT 24 1994
 PLANTING DATE  : OCT 26 1994      PLANTS/m2 :   500.0    ROW SPACING :  12.cm
 HARVEST DATE   : AUG  4 1995
 WEATHER        : SEDE   1994
 SOIL           : IB00000001     TEXTURE : SIC   - DEFAULT - DEEP SILTY CLAY
 SOIL INITIAL C : DEPTH:210cm EXTR. H2O:276.6mm  NO3:  0.3kg/ha  NH4:  0.3kg/ha
 WATER BALANCE  : RAINFED
 IRRIGATION     : NOT IRRIGATED
 NITROGEN BAL.  : SOIL-N & N-UPTAKE SIMULATION; NO N-FIXATION
 N-FERTILIZER   :      120 kg/ha IN     2 APPLICATIONS
 RESIDUE/MANURE : INITIAL :     0 kg/ha ;       0 kg/ha IN     0 APPLICATIONS
 ENVIRONM. OPT. : DAYL=    0.00  SRAD=    0.00  TMAX=    0.00  TMIN=    0.00
                  RAIN=    0.00  CO2 =    0.00  DEW =    0.00  WIND=    0.00
 SIMULATION OPT : WATER   :Y  NITROGEN:Y  N-FIX:N  PHOSPH :N  PESTS  :N
                  PHOTO   :C  ET      :R  INFIL:S  HYDROL :R  SOM    :G
                  CO2 359ppm  NSWIT   :1  EVAP :R  SOIL   :2  STEMP  :D
 MANAGEMENT OPT : PLANTING:R  IRRIG   :N  FERT :R  RESIDUE:N  HARVEST:R
                  WEATHER :M  TILLAGE :Y

*SUMMARY OF SOIL AND GENETIC INPUT PARAMETERS

   SOIL LOWER UPPER   SAT  EXTR  INIT   ROOT   BULK     pH    NO3    NH4    ORG
  DEPTH LIMIT LIMIT    SW    SW    SW   DIST   DENS                          C
   cm   cm3/cm3    cm3/cm3    cm3/cm3         g/cm3         ugN/g  ugN/g     %
-------------------------------------------------------------------------------
  0-  5 0.228 0.385 0.481 0.157 0.385   1.00   1.30   6.50   0.01   0.01   1.75
  5- 15 0.228 0.385 0.481 0.157 0.385   1.00   1.30   6.50   0.01   0.01   1.75
 15- 30 0.249 0.406 0.482 0.157 0.406   0.64   1.30   6.50   0.01   0.01   1.60
 30- 45 0.249 0.406 0.465 0.157 0.406   0.47   1.35   6.50   0.01   0.01   1.45
 45- 60 0.249 0.406 0.465 0.157 0.406   0.35   1.35   6.50   0.01   0.01   1.45
 60- 90 0.308 0.456 0.468 0.148 0.456   0.22   1.35   6.50   0.01   0.01   1.10
 90-120 0.207 0.341 0.452 0.134 0.341   0.12   1.40   6.50   0.01   0.01   0.65
120-150 0.243 0.365 0.455 0.122 0.365   0.07   1.40   6.50   0.01   0.01   0.30
150-180 0.259 0.361 0.457 0.102 0.361   0.04   1.40   6.50   0.01   0.01   0.10
180-210 0.259 0.361 0.457 0.102 0.361   0.02   1.40   6.50   0.01   0.01   0.01

TOT-210  52.9  80.6  97.1  27.7  80.6  <--cm   -  kg/ha-->    0.3    0.3 213120
SOIL ALBEDO    : 0.11      EVAPORATION LIMIT : 6.00         MIN. FACTOR  : 1.00
RUNOFF CURVE # :85.00      DRAINAGE RATE     : 0.30         FERT. FACTOR : 1.00

 Wheat            CULTIVAR: IB9999-Borenos            ECOTYPE: IB0001


*SIMULATED CROP AND SOIL STATUS AT MAIN DEVELOPMENT STAGES

 RUN NO.     4     1 | 4                   

        CROP GROWTH     BIOMASS         LEAF   CROP N     STRESS      STRESS                                           
   DATE  AGE STAGE        kg/ha    LAI   NUM  kg/ha  %   H2O  Nitr Phos1 Phos2  RSTG                                   
 ------  --- ----------   -----  -----  ----  ---  ---  ----  ----  ----  ----  ----                                   
 24 OCT    0 Fallow           0   0.00   0.0    0  0.0  0.00  0.00  0.00  0.00     7
 26 OCT    0 Sowing           0   0.00   0.0    0  0.0  0.00  0.00  0.00  0.00     8
 28 OCT    2 Germinate        0   0.00   0.0    0  0.0  0.00  0.00  0.00  0.00     9
  6 NOV   11 Emergence       18   0.02   0.0    1  6.8  0.00  0.00  0.00  0.00     1
 22 APR  178 End Juveni    1449   2.03   0.0   54  3.7  0.32  0.00  0.00  0.00     2
 22 MAY  208 End Veg       5539   5.26   0.0  114  2.1  0.88  0.00  0.00  0.00     3
  6 JUN  223 End Ear Gr    8105   4.68   0.0  121  1.5  0.76  0.00  0.00  0.00     4
 20 JUN  237 Beg Gr Fil   10987   4.02   0.0  126  1.1  0.86  0.00  0.00  0.00     5
 14 JUL  261 Maturity     14617   0.07   0.0  131  0.9  0.91  0.04  0.00  0.00     6
 15 JUL  262 Maturity     14617   0.07   0.0  131  0.9  0.95  1.00  0.00  0.00     7
  4 AUG  282 Harvest      14617   0.07   0.0  131  0.9  0.95  1.00  0.00  0.00     7


*MAIN GROWTH AND DEVELOPMENT VARIABLES

@     VARIABLE                                         SIMULATED     MEASURED
      --------                                         ---------     --------
      Anthesis day (dap)                                     223          275
      Physiological maturity day (dap)                       262          319
      Yield at harvest maturity (kg [dm]/ha)                6131         6734
      Number at maturity (no/m2)                           18258          -99
      Unit wt at maturity (g [dm]/unit)                     33.6          -99
      Number at maturity (no/unit)                          36.5          -99
      Tops weight at maturity (kg [dm]/ha)                 14617          -99
      By-product produced (stalk) at maturity (kg[dm]/ha       0          -99
      Leaf area index, maximum                              5.30          -99
      Harvest index at maturity                            0.419          -99
      Grain N at maturity (kg/ha)                            105          -99
      Tops N at maturity (kg/ha)                             131          -99
      Stem N at maturity (kg/ha)                               0          -99
      Grain N at maturity (%)                                1.7          -99
      Tops weight at anthesis (kg [dm]/ha)                     2          -99
      Tops N at anthesis (kg/ha)                              44          -99
      Leaf number per stem at maturity                      0.00          -99
      Emergence day (dap)                                     11          -99


*ENVIRONMENTAL AND STRESS FACTORS

 |-----Development Phase------|--------------------------------------Environment--------------------------------------|-----------------Stress-----------------|
                              |---------------Average--------------|-----Cumulative-----|--------Count of days--------|          (0=Min, 1=Max Stress)         |
                         Time  Temp  Temp  Temp Solar Photop                Evapo    Pot TMIN TMIN TMAX TMAX TMAX RAIN|----Water----|---Nitrogen--|-Phosphorus-|
                         Span   Max   Min  Mean   Rad  [day]    CO2   Rain  Trans     ET   <    <    >    >    >    >   Photo         Photo         Photo
                         days    øC    øC    øC MJ/m2     hr    ppm     mm     mm     mm  0øC  2øC 30øC 32øC 34øC  0mm  synth Growth  synth Growth  synth Growth
----------------------------------------------------------------------------------------------------------------------------------------------------------------
 Emergence-End Juvenile   167   7.1   1.3   4.2   5.1   9.66  359.8  297.1  105.5  132.8   58   96    0    0    0  107  0.272  0.319  0.001  0.003  0.000  0.000
 End Juvenil-Floral Init   30  15.8   6.4  11.1  17.0  14.88  360.4   52.7   55.7   91.6    0    1    0    0    0   10  0.836  0.880  0.000  0.000  0.000  0.000
 Floral Init-End Lf Grow   15  19.2   9.1  14.2  17.0  15.95  360.5   43.8   42.3   49.1    0    0    0    0    0    5  0.674  0.769  0.000  0.000  0.000  0.000
 End Lf Grth-Beg Grn Fil   14  17.0  10.2  13.6  16.7  16.32  360.6   26.1   27.9   43.6    0    0    0    0    0   11  0.781  0.854  0.000  0.000  0.000  0.000
 Grain Filling Phase       24  24.5  13.5  19.0  22.4  16.28  360.7   21.6   93.9  117.1    0    0    4    1    0    6  0.857  0.905  0.000  0.000  0.000  0.000
   
 Planting to Harvest      282  12.3   4.9   8.6  10.1  11.87  360.1  492.9  373.1  544.7   58   97    8    2    0  150  0.401  0.514  0.060  0.076  0.000  0.000
----------------------------------------------------------------------------------------------------------------------------------------------------------------


*Resource Productivity
 Growing season length: 282 days 

 Precipitation during growing season       492.9 mm[rain]
   Dry Matter Productivity                  2.97 kg[DM]/m3[rain]          =   29.7 kg[DM]/ha per mm[rain]
   Yield Productivity                       1.24 kg[grain yield]/m3[rain] =   12.4 kg[yield]/ha per mm[rain]

 Evapotranspiration during growing season  373.1 mm[ET]
   Dry Matter Productivity                  3.92 kg[DM]/m3[ET]            =   39.2 kg[DM]/ha per mm[ET]
   Yield Productivity                       1.64 kg[grain yield]/m3[ET]   =   16.4 kg[yield]/ha per mm[ET]

 Transpiration during growing season       202.5 mm[EP]
   Dry Matter Productivity                  7.22 kg[DM]/m3[EP]            =   72.2 kg[DM]/ha per mm[EP]
   Yield Productivity                       3.03 kg[grain yield]/m3[EP]   =   30.3 kg[yield]/ha per mm[EP]

 N applied during growing season            120. kg[N applied]/ha
   Dry Matter Productivity                 121.8 kg[DM]/kg[N applied]
   Yield Productivity                       51.1 kg[yield]/kg[N applied]

 N uptake during growing season              169 kg[N uptake]/ha
   Dry Matter Productivity                  86.5 kg[DM]/kg[N uptake]
   Yield Productivity                       36.3 kg[yield]/kg[N uptake]

--------------------------------------------------------------------------------------------------------------

                     Wheat YIELD :     6131 kg/ha    [Dry weight] 

**************************************************************************************************************
