*WARNING DETAIL FILE

******************************************************************************

*DSSAT Cropping System Model Ver. 4.8.0.027 -release  JAN 10, 2024 21:16:38

*RUN   1        : 1 | 1                     WHAPS048 SEDE9501    1
 MODEL          : WHAPS048 - Wheat
 EXPERIMENT     : SEDE9501 WH en, Duengungs-Kombinationsversuch Seehausen (F1-70
 DATA PATH      :
 TREATMENT  1   : 1 | 1                     WHAPS048
  

 IPSOIL  YEAR DOY =    0   0
 Saturated hydraulic conductivity equal to zero for one or more soil layers.   
 Data will be treated as missing.                                              

 TILLAGE  YEAR DOY = 1994 297
 User-specified tillage depth less than that specified by tillage implement.   
 Tillage operation date: 1994 298                                              
 TI038: Rotary hoe                                                             
 Implement depth =         2.5 cm                                              
 User-specified depth of   2.0 cm will be used.                                

 SOLORG  YEAR DOY = 1994 297
 The initialized C:N ratio of the soil organic                                 
 matter (humus) in layer   3 is unlikely:      9.4                             
 A C:N ratio of 10.0 will be used to calculate initial soil organic N.         
 Please check your SOIL.SOL file.                                              

 IPWTH   YEAR DOY = 1994 311
 Warning: SRAD < 1 MJ.m-2.d-1.                                                 
 C:\DSSAT48\Weather\SEDE9401.WTH                                               
 Line      323                                                                 
 SRAD =   0.70 MJ.m-2.d-1                                                      

 IPWTH   YEAR DOY = 1994 315
 Warning: SRAD < 1 MJ.m-2.d-1.                                                 
 C:\DSSAT48\Weather\SEDE9401.WTH                                               
 Line      327                                                                 
 SRAD =   0.90 MJ.m-2.d-1                                                      

 IPWTH   YEAR DOY = 1994 328
 Warning: SRAD < 1 MJ.m-2.d-1.                                                 
 C:\DSSAT48\Weather\SEDE9401.WTH                                               
 Line      340                                                                 
 SRAD =   0.50 MJ.m-2.d-1                                                      

 IPWTH   YEAR DOY = 1994 334
 Warning: SRAD < 1 MJ.m-2.d-1.                                                 
 C:\DSSAT48\Weather\SEDE9401.WTH                                               
 Line      346                                                                 
 SRAD =   0.80 MJ.m-2.d-1                                                      

 IPWTH   YEAR DOY = 1994 356
 Warning: SRAD < 1 MJ.m-2.d-1.                                                 
 C:\DSSAT48\Weather\SEDE9401.WTH                                               
 Line      368                                                                 
 SRAD =   0.90 MJ.m-2.d-1                                                      

 IPWTH   YEAR DOY = 1994 358
 Warning: SRAD < 1 MJ.m-2.d-1.                                                 
 C:\DSSAT48\Weather\SEDE9401.WTH                                               
 Line      370                                                                 
 SRAD =   0.90 MJ.m-2.d-1                                                      

 IPWTH   YEAR DOY = 1994 359
 Warning: SRAD < 1 MJ.m-2.d-1.                                                 
 C:\DSSAT48\Weather\SEDE9401.WTH                                               
 Line      371                                                                 
 SRAD =   0.70 MJ.m-2.d-1                                                      

 IPWTH   YEAR DOY = 1994 361
 Warning: SRAD < 1 MJ.m-2.d-1.                                                 
 C:\DSSAT48\Weather\SEDE9401.WTH                                               
 Line      373                                                                 
 SRAD =   0.60 MJ.m-2.d-1                                                      

 IPWTH   YEAR DOY = 1995   7
 Warning: SRAD < 1 MJ.m-2.d-1.                                                 
 C:\DSSAT48\Weather\SEDE9501.WTH                                               
 Line       19                                                                 
 SRAD =   0.80 MJ.m-2.d-1                                                      

 IPWTH   YEAR DOY = 1995  30
 Warning: SRAD < 1 MJ.m-2.d-1.                                                 
 C:\DSSAT48\Weather\SEDE9501.WTH                                               
 Line       42                                                                 
 SRAD =   0.70 MJ.m-2.d-1                                                      

******************************************************************************

*DSSAT Cropping System Model Ver. 4.8.0.027 -release  JAN 10, 2024 21:16:38

*RUN   2        : 1 | 2                     WHAPS048 SEDE9501    2
 MODEL          : WHAPS048 - Wheat
 EXPERIMENT     : SEDE9501 WH en, Duengungs-Kombinationsversuch Seehausen (F1-70
 DATA PATH      :
 TREATMENT  2   : 1 | 2                     WHAPS048
  

 IPSOIL  YEAR DOY =    0   0
 Saturated hydraulic conductivity equal to zero for one or more soil layers.   
 Data will be treated as missing.                                              

 TILLAGE  YEAR DOY = 1994 297
 User-specified tillage depth less than that specified by tillage implement.   
 Tillage operation date: 1994 298                                              
 TI038: Rotary hoe                                                             
 Implement depth =         2.5 cm                                              
 User-specified depth of   2.0 cm will be used.                                

 SOLORG  YEAR DOY = 1994 297
 The initialized C:N ratio of the soil organic                                 
 matter (humus) in layer   3 is unlikely:      9.4                             
 A C:N ratio of 10.0 will be used to calculate initial soil organic N.         
 Please check your SOIL.SOL file.                                              

 IPWTH   YEAR DOY = 1994 311
 Warning: SRAD < 1 MJ.m-2.d-1.                                                 
 C:\DSSAT48\Weather\SEDE9401.WTH                                               
 Line      323                                                                 
 SRAD =   0.70 MJ.m-2.d-1                                                      

 IPWTH   YEAR DOY = 1994 315
 Warning: SRAD < 1 MJ.m-2.d-1.                                                 
 C:\DSSAT48\Weather\SEDE9401.WTH                                               
 Line      327                                                                 
 SRAD =   0.90 MJ.m-2.d-1                                                      

 IPWTH   YEAR DOY = 1994 328
 Warning: SRAD < 1 MJ.m-2.d-1.                                                 
 C:\DSSAT48\Weather\SEDE9401.WTH                                               
 Line      340                                                                 
 SRAD =   0.50 MJ.m-2.d-1                                                      

 IPWTH   YEAR DOY = 1994 334
 Warning: SRAD < 1 MJ.m-2.d-1.                                                 
 C:\DSSAT48\Weather\SEDE9401.WTH                                               
 Line      346                                                                 
 SRAD =   0.80 MJ.m-2.d-1                                                      

 IPWTH   YEAR DOY = 1994 356
 Warning: SRAD < 1 MJ.m-2.d-1.                                                 
 C:\DSSAT48\Weather\SEDE9401.WTH                                               
 Line      368                                                                 
 SRAD =   0.90 MJ.m-2.d-1                                                      

 IPWTH   YEAR DOY = 1994 358
 Warning: SRAD < 1 MJ.m-2.d-1.                                                 
 C:\DSSAT48\Weather\SEDE9401.WTH                                               
 Line      370                                                                 
 SRAD =   0.90 MJ.m-2.d-1                                                      

 IPWTH   YEAR DOY = 1994 359
 Warning: SRAD < 1 MJ.m-2.d-1.                                                 
 C:\DSSAT48\Weather\SEDE9401.WTH                                               
 Line      371                                                                 
 SRAD =   0.70 MJ.m-2.d-1                                                      

 IPWTH   YEAR DOY = 1994 361
 Warning: SRAD < 1 MJ.m-2.d-1.                                                 
 C:\DSSAT48\Weather\SEDE9401.WTH                                               
 Line      373                                                                 
 SRAD =   0.60 MJ.m-2.d-1                                                      

 IPWTH   YEAR DOY = 1995   7
 Warning: SRAD < 1 MJ.m-2.d-1.                                                 
 C:\DSSAT48\Weather\SEDE9501.WTH                                               
 Line       19                                                                 
 SRAD =   0.80 MJ.m-2.d-1                                                      

 IPWTH   YEAR DOY = 1995  30
 Warning: SRAD < 1 MJ.m-2.d-1.                                                 
 C:\DSSAT48\Weather\SEDE9501.WTH                                               
 Line       42                                                                 
 SRAD =   0.70 MJ.m-2.d-1                                                      

 NWGRNI  YEAR DOY = 1995 190
 pnout bound check >navl error                                                 

 NWGRNI  YEAR DOY = 1995 191
 pnout bound check >navl error                                                 

 NWGRNI  YEAR DOY = 1995 192
 pnout bound check >navl error                                                 

******************************************************************************

*DSSAT Cropping System Model Ver. 4.8.0.027 -release  JAN 10, 2024 21:16:38

*RUN   3        : 1 | 3                     WHAPS048 SEDE9501    3
 MODEL          : WHAPS048 - Wheat
 EXPERIMENT     : SEDE9501 WH en, Duengungs-Kombinationsversuch Seehausen (F1-70
 DATA PATH      :
 TREATMENT  3   : 1 | 3                     WHAPS048
  

 IPSOIL  YEAR DOY =    0   0
 Saturated hydraulic conductivity equal to zero for one or more soil layers.   
 Data will be treated as missing.                                              

 TILLAGE  YEAR DOY = 1994 297
 User-specified tillage depth less than that specified by tillage implement.   
 Tillage operation date: 1994 298                                              
 TI038: Rotary hoe                                                             
 Implement depth =         2.5 cm                                              
 User-specified depth of   2.0 cm will be used.                                

 SOLORG  YEAR DOY = 1994 297
 The initialized C:N ratio of the soil organic                                 
 matter (humus) in layer   3 is unlikely:      9.4                             
 A C:N ratio of 10.0 will be used to calculate initial soil organic N.         
 Please check your SOIL.SOL file.                                              

 IPWTH   YEAR DOY = 1994 311
 Warning: SRAD < 1 MJ.m-2.d-1.                                                 
 C:\DSSAT48\Weather\SEDE9401.WTH                                               
 Line      323                                                                 
 SRAD =   0.70 MJ.m-2.d-1                                                      

 IPWTH   YEAR DOY = 1994 315
 Warning: SRAD < 1 MJ.m-2.d-1.                                                 
 C:\DSSAT48\Weather\SEDE9401.WTH                                               
 Line      327                                                                 
 SRAD =   0.90 MJ.m-2.d-1                                                      

 IPWTH   YEAR DOY = 1994 328
 Warning: SRAD < 1 MJ.m-2.d-1.                                                 
 C:\DSSAT48\Weather\SEDE9401.WTH                                               
 Line      340                                                                 
 SRAD =   0.50 MJ.m-2.d-1                                                      

 IPWTH   YEAR DOY = 1994 334
 Warning: SRAD < 1 MJ.m-2.d-1.                                                 
 C:\DSSAT48\Weather\SEDE9401.WTH                                               
 Line      346                                                                 
 SRAD =   0.80 MJ.m-2.d-1                                                      

 IPWTH   YEAR DOY = 1994 356
 Warning: SRAD < 1 MJ.m-2.d-1.                                                 
 C:\DSSAT48\Weather\SEDE9401.WTH                                               
 Line      368                                                                 
 SRAD =   0.90 MJ.m-2.d-1                                                      

 IPWTH   YEAR DOY = 1994 358
 Warning: SRAD < 1 MJ.m-2.d-1.                                                 
 C:\DSSAT48\Weather\SEDE9401.WTH                                               
 Line      370                                                                 
 SRAD =   0.90 MJ.m-2.d-1                                                      

 IPWTH   YEAR DOY = 1994 359
 Warning: SRAD < 1 MJ.m-2.d-1.                                                 
 C:\DSSAT48\Weather\SEDE9401.WTH                                               
 Line      371                                                                 
 SRAD =   0.70 MJ.m-2.d-1                                                      

 IPWTH   YEAR DOY = 1994 361
 Warning: SRAD < 1 MJ.m-2.d-1.                                                 
 C:\DSSAT48\Weather\SEDE9401.WTH                                               
 Line      373                                                                 
 SRAD =   0.60 MJ.m-2.d-1                                                      

 IPWTH   YEAR DOY = 1995   7
 Warning: SRAD < 1 MJ.m-2.d-1.                                                 
 C:\DSSAT48\Weather\SEDE9501.WTH                                               
 Line       19                                                                 
 SRAD =   0.80 MJ.m-2.d-1                                                      

 IPWTH   YEAR DOY = 1995  30
 Warning: SRAD < 1 MJ.m-2.d-1.                                                 
 C:\DSSAT48\Weather\SEDE9501.WTH                                               
 Line       42                                                                 
 SRAD =   0.70 MJ.m-2.d-1                                                      

 NWGRNI  YEAR DOY = 1995 190
 pnout bound check >navl error                                                 

 NWGRNI  YEAR DOY = 1995 191
 pnout bound check >navl error                                                 

******************************************************************************

*DSSAT Cropping System Model Ver. 4.8.0.027 -release  JAN 10, 2024 21:16:38

*RUN   4        : 1 | 4                     WHAPS048 SEDE9501    4
 MODEL          : WHAPS048 - Wheat
 EXPERIMENT     : SEDE9501 WH en, Duengungs-Kombinationsversuch Seehausen (F1-70
 DATA PATH      :
 TREATMENT  4   : 1 | 4                     WHAPS048
  

 IPSOIL  YEAR DOY =    0   0
 Saturated hydraulic conductivity equal to zero for one or more soil layers.   
 Data will be treated as missing.                                              

 TILLAGE  YEAR DOY = 1994 297
 User-specified tillage depth less than that specified by tillage implement.   
 Tillage operation date: 1994 298                                              
 TI038: Rotary hoe                                                             
 Implement depth =         2.5 cm                                              
 User-specified depth of   2.0 cm will be used.                                

 SOLORG  YEAR DOY = 1994 297
 The initialized C:N ratio of the soil organic                                 
 matter (humus) in layer   3 is unlikely:      9.4                             
 A C:N ratio of 10.0 will be used to calculate initial soil organic N.         
 Please check your SOIL.SOL file.                                              

 IPWTH   YEAR DOY = 1994 311
 Warning: SRAD < 1 MJ.m-2.d-1.                                                 
 C:\DSSAT48\Weather\SEDE9401.WTH                                               
 Line      323                                                                 
 SRAD =   0.70 MJ.m-2.d-1                                                      

 IPWTH   YEAR DOY = 1994 315
 Warning: SRAD < 1 MJ.m-2.d-1.                                                 
 C:\DSSAT48\Weather\SEDE9401.WTH                                               
 Line      327                                                                 
 SRAD =   0.90 MJ.m-2.d-1                                                      

 IPWTH   YEAR DOY = 1994 328
 Warning: SRAD < 1 MJ.m-2.d-1.                                                 
 C:\DSSAT48\Weather\SEDE9401.WTH                                               
 Line      340                                                                 
 SRAD =   0.50 MJ.m-2.d-1                                                      

 IPWTH   YEAR DOY = 1994 334
 Warning: SRAD < 1 MJ.m-2.d-1.                                                 
 C:\DSSAT48\Weather\SEDE9401.WTH                                               
 Line      346                                                                 
 SRAD =   0.80 MJ.m-2.d-1                                                      

 IPWTH   YEAR DOY = 1994 356
 Warning: SRAD < 1 MJ.m-2.d-1.                                                 
 C:\DSSAT48\Weather\SEDE9401.WTH                                               
 Line      368                                                                 
 SRAD =   0.90 MJ.m-2.d-1                                                      

 IPWTH   YEAR DOY = 1994 358
 Warning: SRAD < 1 MJ.m-2.d-1.                                                 
 C:\DSSAT48\Weather\SEDE9401.WTH                                               
 Line      370                                                                 
 SRAD =   0.90 MJ.m-2.d-1                                                      

 IPWTH   YEAR DOY = 1994 359
 Warning: SRAD < 1 MJ.m-2.d-1.                                                 
 C:\DSSAT48\Weather\SEDE9401.WTH                                               
 Line      371                                                                 
 SRAD =   0.70 MJ.m-2.d-1                                                      

 IPWTH   YEAR DOY = 1994 361
 Warning: SRAD < 1 MJ.m-2.d-1.                                                 
 C:\DSSAT48\Weather\SEDE9401.WTH                                               
 Line      373                                                                 
 SRAD =   0.60 MJ.m-2.d-1                                                      

 IPWTH   YEAR DOY = 1995   7
 Warning: SRAD < 1 MJ.m-2.d-1.                                                 
 C:\DSSAT48\Weather\SEDE9501.WTH                                               
 Line       19                                                                 
 SRAD =   0.80 MJ.m-2.d-1                                                      

 IPWTH   YEAR DOY = 1995  30
 Warning: SRAD < 1 MJ.m-2.d-1.                                                 
 C:\DSSAT48\Weather\SEDE9501.WTH                                               
 Line       42                                                                 
 SRAD =   0.70 MJ.m-2.d-1                                                      

 NWGRNI  YEAR DOY = 1995 185
 pnout bound check >navl error                                                 

 NWGRNI  YEAR DOY = 1995 188
 pnout bound check >navl error                                                 

 NWGRNI  YEAR DOY = 1995 191
 pnout bound check >navl error                                                 
